CHEMBL3234252
     RDKit          3D

 51 54  0  0  0  0  0  0  0  0999 V2000
   -6.0936   -1.1214    1.9003 C   0  0  0  0  0  0  0  0  0  0  0  0
   -5.1566   -1.8795    0.9744 C   0  0  0  0  0  0  0  0  0  0  0  0
   -4.5195   -1.0079    0.0178 N   0  0  0  0  0  0  0  0  0  0  0  0
   -5.0271   -0.7002   -1.2399 C   0  0  0  0  0  0  0  0  0  0  0  0
   -6.0272   -1.1144   -1.7917 O   0  0  0  0  0  0  0  0  0  0  0  0
   -4.0813    0.2832   -1.8076 C   0  0  0  0  0  0  0  0  0  0  0  0
   -4.0757    0.9375   -3.0208 C   0  0  0  0  0  0  0  0  0  0  0  0
   -3.0342    1.8422   -3.2544 C   0  0  0  0  0  0  0  0  0  0  0  0
   -2.0305    2.0705   -2.2818 C   0  0  0  0  0  0  0  0  0  0  0  0
   -2.0325    1.3876   -1.0293 C   0  0  0  0  0  0  0  0  0  0  0  0
   -1.1607    1.4411    0.0969 C   0  0  0  0  0  0  0  0  0  0  0  0
    0.2964    2.4578    0.1019 S   0  0  0  0  0  0  0  0  0  0  0  0
    0.7404    2.7051   -1.2504 O   0  0  0  0  0  0  0  0  0  0  0  0
    0.0624    3.5280    1.0441 O   0  0  0  0  0  0  0  0  0  0  0  0
    1.4475    1.4565    0.8122 N   0  0  0  0  0  0  0  0  0  0  0  0
    2.1178    0.4207    0.0062 C   0  0  0  0  0  0  0  0  0  0  0  0
    3.4052    0.9959   -0.5929 C   0  0  0  0  0  0  0  0  0  0  0  0
    4.4160   -0.1001   -0.9004 C   0  0  0  0  0  0  0  0  0  0  0  0
    4.7562   -0.8798    0.2895 N   0  0  0  0  0  0  0  0  0  0  0  0
    5.9392   -1.5931    0.4376 C   0  0  0  0  0  0  0  0  0  0  0  0
    6.8716   -1.6288   -0.7474 C   0  0  0  0  0  0  0  0  0  0  0  0
    6.2376   -2.1742    1.4809 O   0  0  0  0  0  0  0  0  0  0  0  0
    3.7995   -0.8773    1.3941 C   0  0  0  0  0  0  0  0  0  0  0  0
    2.3645   -0.8106    0.8882 C   0  0  0  0  0  0  0  0  0  0  0  0
   -1.4197    0.6695    1.2639 C   0  0  0  0  0  0  0  0  0  0  0  0
   -2.5266   -0.1886    1.3411 C   0  0  0  0  0  0  0  0  0  0  0  0
   -3.3574   -0.2553    0.2445 C   0  0  0  0  0  0  0  0  0  0  0  0
   -3.1041    0.5075   -0.8694 C   0  0  0  0  0  0  0  0  0  0  0  0
   -6.5780   -1.8105    2.5989 H   0  0  0  0  0  0  0  0  0  0  0  0
   -5.5518   -0.3691    2.4825 H   0  0  0  0  0  0  0  0  0  0  0  0
   -6.8739   -0.6046    1.3317 H   0  0  0  0  0  0  0  0  0  0  0  0
   -4.3911   -2.4127    1.5479 H   0  0  0  0  0  0  0  0  0  0  0  0
   -5.7345   -2.6294    0.4222 H   0  0  0  0  0  0  0  0  0  0  0  0
   -4.8533    0.7598   -3.7560 H   0  0  0  0  0  0  0  0  0  0  0  0
   -2.9956    2.3861   -4.1968 H   0  0  0  0  0  0  0  0  0  0  0  0
   -1.2576    2.7981   -2.5206 H   0  0  0  0  0  0  0  0  0  0  0  0
    1.9480    1.9001    1.5825 H   0  0  0  0  0  0  0  0  0  0  0  0
    1.4448    0.1064   -0.8016 H   0  0  0  0  0  0  0  0  0  0  0  0
    3.8608    1.7156    0.1008 H   0  0  0  0  0  0  0  0  0  0  0  0
    3.1768    1.5550   -1.5074 H   0  0  0  0  0  0  0  0  0  0  0  0
    4.0114   -0.7984   -1.6424 H   0  0  0  0  0  0  0  0  0  0  0  0
    5.3215    0.3461   -1.3222 H   0  0  0  0  0  0  0  0  0  0  0  0
    7.6332   -2.3974   -0.5831 H   0  0  0  0  0  0  0  0  0  0  0  0
    6.3294   -1.8872   -1.6605 H   0  0  0  0  0  0  0  0  0  0  0  0
    7.3700   -0.6625   -0.8576 H   0  0  0  0  0  0  0  0  0  0  0  0
    3.9300   -1.7734    2.0103 H   0  0  0  0  0  0  0  0  0  0  0  0
    4.0288   -0.0106    2.0255 H   0  0  0  0  0  0  0  0  0  0  0  0
    2.1735   -1.7099    0.2872 H   0  0  0  0  0  0  0  0  0  0  0  0
    1.6655   -0.8470    1.7322 H   0  0  0  0  0  0  0  0  0  0  0  0
   -0.7543    0.7436    2.1231 H   0  0  0  0  0  0  0  0  0  0  0  0
   -2.7115   -0.7702    2.2372 H   0  0  0  0  0  0  0  0  0  0  0  0
  1  2  1  0
  2  3  1  0
  3  4  1  0
  4  5  2  0
  4  6  1  0
  6  7  1  0
  7  8  2  0
  8  9  1  0
  9 10  2  0
 10 11  1  0
 11 12  1  0
 12 13  2  0
 12 14  2  0
 12 15  1  0
 15 16  1  0
 16 17  1  0
 17 18  1  0
 18 19  1  0
 19 20  1  0
 20 21  1  0
 20 22  2  0
 19 23  1  0
 23 24  1  0
 11 25  2  0
 25 26  1  0
 26 27  2  0
 27 28  1  0
 27  3  1  0
 28  6  2  0
 28 10  1  0
 24 16  1  0
  1 29  1  0
  1 30  1  0
  1 31  1  0
  2 32  1  0
  2 33  1  0
  7 34  1  0
  8 35  1  0
  9 36  1  0
 15 37  1  0
 16 38  1  0
 17 39  1  0
 17 40  1  0
 18 41  1  0
 18 42  1  0
 21 43  1  0
 21 44  1  0
 21 45  1  0
 23 46  1  0
 23 47  1  0
 24 48  1  0
 24 49  1  0
 25 50  1  0
 26 51  1  0
M  END
>  <QED>  (1) 
0.85

>  <MW>  (1) 
401.5

$$$$
CHEMBL3218920
     RDKit          3D

 40 42  0  0  0  0  0  0  0  0999 V2000
    8.1667   -0.6710   -0.7936 C   0  0  0  0  0  0  0  0  0  0  0  0
    6.7395   -1.0627   -1.1337 C   0  0  0  0  0  0  0  0  0  0  0  0
    5.7094   -0.2263   -0.3892 C   0  0  0  0  0  0  0  0  0  0  0  0
    6.0301    0.6597    0.3931 O   0  0  0  0  0  0  0  0  0  0  0  0
    4.4179   -0.6077   -0.7209 N   0  0  0  0  0  0  0  0  0  0  0  0
    3.1998   -0.0717   -0.2414 C   0  0  0  0  0  0  0  0  0  0  0  0
    3.1417    0.9942    0.7016 C   0  0  0  0  0  0  0  0  0  0  0  0
    1.9382    1.5468    1.1957 C   0  0  0  0  0  0  0  0  0  0  0  0
    0.7728    0.9597    0.6817 C   0  0  0  0  0  0  0  0  0  0  0  0
   -0.5088    1.2466    0.9412 N   0  0  0  0  0  0  0  0  0  0  0  0
   -1.1853    0.3655    0.1649 N   0  0  0  0  0  0  0  0  0  0  0  0
   -2.6058    0.3306    0.1403 C   0  0  0  0  0  0  0  0  0  0  0  0
   -3.3456    1.2200    0.9314 C   0  0  0  0  0  0  0  0  0  0  0  0
   -4.7423    1.1832    0.9053 C   0  0  0  0  0  0  0  0  0  0  0  0
   -5.4159    0.2651    0.0889 C   0  0  0  0  0  0  0  0  0  0  0  0
   -6.9228    0.2167    0.0766 C   0  0  0  0  0  0  0  0  0  0  0  0
   -7.4665   -0.7364    1.1299 C   0  0  0  0  0  0  0  0  0  0  0  0
   -4.6709   -0.6259   -0.6949 C   0  0  0  0  0  0  0  0  0  0  0  0
   -3.2739   -0.5944   -0.6735 C   0  0  0  0  0  0  0  0  0  0  0  0
   -0.4393   -0.4818   -0.5878 N   0  0  0  0  0  0  0  0  0  0  0  0
    0.8168   -0.1305   -0.2827 C   0  0  0  0  0  0  0  0  0  0  0  0
    2.0275   -0.6654   -0.7612 C   0  0  0  0  0  0  0  0  0  0  0  0
    8.8753   -1.2941   -1.3479 H   0  0  0  0  0  0  0  0  0  0  0  0
    8.3646   -0.7966    0.2760 H   0  0  0  0  0  0  0  0  0  0  0  0
    8.3587    0.3762   -1.0497 H   0  0  0  0  0  0  0  0  0  0  0  0
    6.5755   -0.9390   -2.2102 H   0  0  0  0  0  0  0  0  0  0  0  0
    6.5814   -2.1167   -0.8787 H   0  0  0  0  0  0  0  0  0  0  0  0
    4.3346   -1.3643   -1.3897 H   0  0  0  0  0  0  0  0  0  0  0  0
    4.0584    1.4358    1.0881 H   0  0  0  0  0  0  0  0  0  0  0  0
    1.9185    2.3571    1.9124 H   0  0  0  0  0  0  0  0  0  0  0  0
   -2.8508    1.9458    1.5740 H   0  0  0  0  0  0  0  0  0  0  0  0
   -5.3023    1.8772    1.5287 H   0  0  0  0  0  0  0  0  0  0  0  0
   -7.3256    1.2231    0.2440 H   0  0  0  0  0  0  0  0  0  0  0  0
   -7.2740   -0.0887   -0.9166 H   0  0  0  0  0  0  0  0  0  0  0  0
   -8.5605   -0.7513    1.0981 H   0  0  0  0  0  0  0  0  0  0  0  0
   -7.1083   -1.7581    0.9640 H   0  0  0  0  0  0  0  0  0  0  0  0
   -7.1604   -0.4326    2.1367 H   0  0  0  0  0  0  0  0  0  0  0  0
   -5.1752   -1.3527   -1.3283 H   0  0  0  0  0  0  0  0  0  0  0  0
   -2.7229   -1.2976   -1.2949 H   0  0  0  0  0  0  0  0  0  0  0  0
    2.0295   -1.4753   -1.4775 H   0  0  0  0  0  0  0  0  0  0  0  0
  1  2  1  0
  2  3  1  0
  3  4  2  0
  3  5  1  0
  5  6  1  0
  6  7  1  0
  7  8  2  0
  8  9  1  0
  9 10  2  0
 10 11  1  0
 11 12  1  0
 12 13  1  0
 13 14  2  0
 14 15  1  0
 15 16  1  0
 16 17  1  0
 15 18  2  0
 18 19  1  0
 11 20  1  0
 20 21  2  0
 21 22  1  0
 22  6  2  0
 21  9  1  0
 19 12  2  0
  1 23  1  0
  1 24  1  0
  1 25  1  0
  2 26  1  0
  2 27  1  0
  5 28  1  0
  7 29  1  0
  8 30  1  0
 13 31  1  0
 14 32  1  0
 16 33  1  0
 16 34  1  0
 17 35  1  0
 17 36  1  0
 17 37  1  0
 18 38  1  0
 19 39  1  0
 22 40  1  0
M  END
>  <QED>  (2) 
0.803

>  <MW>  (2) 
294.4

$$$$
CHEMBL3218918
     RDKit          3D

 35 37  0  0  0  0  0  0  0  0999 V2000
    5.9809   -1.1192   -0.5652 C   0  0  0  0  0  0  0  0  0  0  0  0
    5.0893   -0.1353    0.1346 C   0  0  0  0  0  0  0  0  0  0  0  0
    5.6421    0.8876    0.9155 C   0  0  0  0  0  0  0  0  0  0  0  0
    4.8214    1.8371    1.5257 C   0  0  0  0  0  0  0  0  0  0  0  0
    3.4383    1.7738    1.3601 C   0  0  0  0  0  0  0  0  0  0  0  0
    2.8701    0.7548    0.5873 C   0  0  0  0  0  0  0  0  0  0  0  0
    1.3881    0.7264    0.4333 C   0  0  0  0  0  0  0  0  0  0  0  0
    0.7698    1.7855    0.4417 O   0  0  0  0  0  0  0  0  0  0  0  0
    0.8350   -0.5314    0.3255 N   0  0  0  0  0  0  0  0  0  0  0  0
   -0.5108   -0.7312    0.1640 C   0  0  0  0  0  0  0  0  0  0  0  0
   -1.6040    0.0828    0.0234 C   0  0  0  0  0  0  0  0  0  0  0  0
   -2.7125   -0.7993   -0.1067 C   0  0  0  0  0  0  0  0  0  0  0  0
   -4.1308   -0.4646   -0.2827 C   0  0  0  0  0  0  0  0  0  0  0  0
   -5.0922   -1.4789   -0.4238 C   0  0  0  0  0  0  0  0  0  0  0  0
   -6.4449   -1.1691   -0.5922 C   0  0  0  0  0  0  0  0  0  0  0  0
   -6.8569    0.1603   -0.6219 C   0  0  0  0  0  0  0  0  0  0  0  0
   -5.9181    1.1794   -0.4831 C   0  0  0  0  0  0  0  0  0  0  0  0
   -4.5643    0.8700   -0.3146 C   0  0  0  0  0  0  0  0  0  0  0  0
   -2.2874   -2.0745   -0.0479 N   0  0  0  0  0  0  0  0  0  0  0  0
   -0.9197   -2.0245    0.1208 O   0  0  0  0  0  0  0  0  0  0  0  0
    3.6987   -0.1873   -0.0402 C   0  0  0  0  0  0  0  0  0  0  0  0
    6.2510   -0.7404   -1.5557 H   0  0  0  0  0  0  0  0  0  0  0  0
    5.4801   -2.0863   -0.6795 H   0  0  0  0  0  0  0  0  0  0  0  0
    6.8966   -1.2940    0.0094 H   0  0  0  0  0  0  0  0  0  0  0  0
    6.7205    0.9573    1.0457 H   0  0  0  0  0  0  0  0  0  0  0  0
    5.2602    2.6312    2.1249 H   0  0  0  0  0  0  0  0  0  0  0  0
    2.8042    2.5213    1.8330 H   0  0  0  0  0  0  0  0  0  0  0  0
    1.3984   -1.3634    0.4312 H   0  0  0  0  0  0  0  0  0  0  0  0
   -1.6018    1.1617    0.0158 H   0  0  0  0  0  0  0  0  0  0  0  0
   -4.7964   -2.5264   -0.4041 H   0  0  0  0  0  0  0  0  0  0  0  0
   -7.1736   -1.9684   -0.6998 H   0  0  0  0  0  0  0  0  0  0  0  0
   -7.9086    0.4018   -0.7526 H   0  0  0  0  0  0  0  0  0  0  0  0
   -6.2376    2.2184   -0.5053 H   0  0  0  0  0  0  0  0  0  0  0  0
   -3.8623    1.6928   -0.2084 H   0  0  0  0  0  0  0  0  0  0  0  0
    3.2774   -0.9483   -0.6922 H   0  0  0  0  0  0  0  0  0  0  0  0
  1  2  1  0
  2  3  2  0
  3  4  1  0
  4  5  2  0
  5  6  1  0
  6  7  1  0
  7  8  2  0
  7  9  1  0
  9 10  1  0
 10 11  2  0
 11 12  1  0
 12 13  1  0
 13 14  2  0
 14 15  1  0
 15 16  2  0
 16 17  1  0
 17 18  2  0
 12 19  2  0
 19 20  1  0
  6 21  2  0
 21  2  1  0
 20 10  1  0
 18 13  1  0
  1 22  1  0
  1 23  1  0
  1 24  1  0
  3 25  1  0
  4 26  1  0
  5 27  1  0
  9 28  1  0
 11 29  1  0
 14 30  1  0
 15 31  1  0
 16 32  1  0
 17 33  1  0
 18 34  1  0
 21 35  1  0
M  END
>  <QED>  (3) 
0.79

>  <MW>  (3) 
278.3

$$$$
CHEMBL3218919
     RDKit          3D

 34 36  0  0  0  0  0  0  0  0999 V2000
   -5.8407    0.7350    0.9830 C   0  0  0  0  0  0  0  0  0  0  0  0
   -4.4388    0.3685    0.5880 C   0  0  0  0  0  0  0  0  0  0  0  0
   -4.1512   -0.9217    0.1337 C   0  0  0  0  0  0  0  0  0  0  0  0
   -2.8426   -1.3129   -0.2188 C   0  0  0  0  0  0  0  0  0  0  0  0
   -2.6129   -2.7153   -0.7077 C   0  0  0  0  0  0  0  0  0  0  0  0
   -1.8015   -0.3614   -0.0924 C   0  0  0  0  0  0  0  0  0  0  0  0
   -0.4607   -0.5717   -0.3911 N   0  0  0  0  0  0  0  0  0  0  0  0
    0.2250    0.5211   -0.1615 C   0  0  0  0  0  0  0  0  0  0  0  0
    1.5771    0.5464   -0.3776 N   0  0  0  0  0  0  0  0  0  0  0  0
    2.4328    1.6174   -0.2449 C   0  0  0  0  0  0  0  0  0  0  0  0
    2.0982    2.7618    0.0405 O   0  0  0  0  0  0  0  0  0  0  0  0
    3.8239    1.2567   -0.5179 C   0  0  0  0  0  0  0  0  0  0  0  0
    4.7559    2.3317   -1.4782 S   0  0  0  0  0  0  0  0  0  0  0  0
    6.1231    1.3169   -1.4126 C   0  0  0  0  0  0  0  0  0  0  0  0
    5.8930    0.1944   -0.6524 C   0  0  0  0  0  0  0  0  0  0  0  0
    4.5645    0.1513   -0.1080 C   0  0  0  0  0  0  0  0  0  0  0  0
    4.0943   -0.9410    0.7992 C   0  0  0  0  0  0  0  0  0  0  0  0
   -0.6523    1.8454    0.4347 S   0  0  0  0  0  0  0  0  0  0  0  0
   -2.1013    0.9185    0.3771 C   0  0  0  0  0  0  0  0  0  0  0  0
   -3.4054    1.3032    0.7276 C   0  0  0  0  0  0  0  0  0  0  0  0
   -6.0208    1.8055    0.8385 H   0  0  0  0  0  0  0  0  0  0  0  0
   -6.0093    0.4868    2.0354 H   0  0  0  0  0  0  0  0  0  0  0  0
   -6.5719    0.1978    0.3698 H   0  0  0  0  0  0  0  0  0  0  0  0
   -4.9585   -1.6487    0.0462 H   0  0  0  0  0  0  0  0  0  0  0  0
   -2.9041   -3.4346    0.0645 H   0  0  0  0  0  0  0  0  0  0  0  0
   -1.5609   -2.8903   -0.9524 H   0  0  0  0  0  0  0  0  0  0  0  0
   -3.2044   -2.9002   -1.6102 H   0  0  0  0  0  0  0  0  0  0  0  0
    1.9351   -0.3255   -0.7368 H   0  0  0  0  0  0  0  0  0  0  0  0
    7.0348    1.5967   -1.9228 H   0  0  0  0  0  0  0  0  0  0  0  0
    6.6521   -0.5595   -0.4768 H   0  0  0  0  0  0  0  0  0  0  0  0
    4.9406   -1.4278    1.2953 H   0  0  0  0  0  0  0  0  0  0  0  0
    3.4362   -0.5490    1.5812 H   0  0  0  0  0  0  0  0  0  0  0  0
    3.5523   -1.7018    0.2291 H   0  0  0  0  0  0  0  0  0  0  0  0
   -3.6014    2.3064    1.0958 H   0  0  0  0  0  0  0  0  0  0  0  0
  1  2  1  0
  2  3  2  0
  3  4  1  0
  4  5  1  0
  4  6  2  0
  6  7  1  0
  7  8  2  0
  8  9  1  0
  9 10  1  0
 10 11  2  0
 10 12  1  0
 12 13  1  0
 13 14  1  0
 14 15  2  0
 15 16  1  0
 16 17  1  0
  8 18  1  0
 18 19  1  0
 19 20  2  0
 20  2  1  0
 19  6  1  0
 16 12  2  0
  1 21  1  0
  1 22  1  0
  1 23  1  0
  3 24  1  0
  5 25  1  0
  5 26  1  0
  5 27  1  0
  9 28  1  0
 14 29  1  0
 15 30  1  0
 17 31  1  0
 17 32  1  0
 17 33  1  0
 20 34  1  0
M  END
>  <QED>  (4) 
0.755

>  <MW>  (4) 
302.4

$$$$
CHEMBL2312113
     RDKit          3D

 63 66  0  0  0  0  0  0  0  0999 V2000
   -3.8123   -4.5052   -1.3708 C   0  0  0  0  0  0  0  0  0  0  0  0
   -3.9235   -3.7234   -0.1888 O   0  0  0  0  0  0  0  0  0  0  0  0
   -3.1882   -2.5714   -0.1317 C   0  0  0  0  0  0  0  0  0  0  0  0
   -2.3454   -2.0840   -1.1271 C   0  0  0  0  0  0  0  0  0  0  0  0
   -1.6597   -0.8757   -0.9378 C   0  0  0  0  0  0  0  0  0  0  0  0
   -0.8637   -0.4146   -1.9521 O   0  0  0  0  0  0  0  0  0  0  0  0
   -1.7767   -0.1334    0.2486 C   0  0  0  0  0  0  0  0  0  0  0  0
   -1.0548    1.1988    0.4766 C   0  0  0  0  0  0  0  0  0  0  0  0
    0.4787    1.1378    0.2864 C   0  0  0  0  0  0  0  0  0  0  0  0
    1.1867    0.2913    1.3335 C   0  0  0  0  0  0  0  0  0  0  0  0
    0.6143   -0.1104    2.3475 O   0  0  0  0  0  0  0  0  0  0  0  0
    2.5318    0.0074    1.1084 N   0  0  0  0  0  0  0  0  0  0  0  0
    3.2182   -0.8317    2.0891 C   0  0  0  0  0  0  0  0  0  0  0  0
    4.6312   -1.2450    1.6482 C   0  0  0  0  0  0  0  0  0  0  0  0
    5.1567   -2.3874    2.5137 C   0  0  0  0  0  0  0  0  0  0  0  0
    4.6162   -1.6334    0.1643 C   0  0  0  0  0  0  0  0  0  0  0  0
    4.1099   -0.4828   -0.7310 C   0  0  0  0  0  0  0  0  0  0  0  0
    3.2388   -1.0321   -1.8634 C   0  0  0  0  0  0  0  0  0  0  0  0
    3.3634    0.5993    0.0648 C   0  0  0  0  0  0  0  0  0  0  0  0
   -1.7214    2.3333   -0.3157 C   0  0  0  0  0  0  0  0  0  0  0  0
   -2.8673    2.9646    0.2336 C   0  0  0  0  0  0  0  0  0  0  0  0
   -3.5270    3.9968   -0.4413 C   0  0  0  0  0  0  0  0  0  0  0  0
   -3.0297    4.3781   -1.6662 C   0  0  0  0  0  0  0  0  0  0  0  0
   -1.9275    3.7710   -2.2181 C   0  0  0  0  0  0  0  0  0  0  0  0
   -1.2566    2.7506   -1.5753 C   0  0  0  0  0  0  0  0  0  0  0  0
   -1.6046    4.2885   -3.4346 O   0  0  0  0  0  0  0  0  0  0  0  0
   -2.6313    5.2912   -3.5815 C   0  0  0  0  0  0  0  0  0  0  0  0
   -3.5390    5.3553   -2.4629 O   0  0  0  0  0  0  0  0  0  0  0  0
   -2.6280   -0.6520    1.2433 C   0  0  0  0  0  0  0  0  0  0  0  0
   -2.8231    0.0713    2.3950 O   0  0  0  0  0  0  0  0  0  0  0  0
   -2.4600   -0.6725    3.5591 C   0  0  0  0  0  0  0  0  0  0  0  0
   -3.3342   -1.8451    1.0478 C   0  0  0  0  0  0  0  0  0  0  0  0
   -4.4542   -5.3835   -1.2527 H   0  0  0  0  0  0  0  0  0  0  0  0
   -2.7862   -4.8596   -1.5145 H   0  0  0  0  0  0  0  0  0  0  0  0
   -4.1654   -3.9498   -2.2458 H   0  0  0  0  0  0  0  0  0  0  0  0
   -2.2136   -2.6264   -2.0554 H   0  0  0  0  0  0  0  0  0  0  0  0
   -1.0453   -0.9293   -2.7552 H   0  0  0  0  0  0  0  0  0  0  0  0
   -1.1784    1.4872    1.5297 H   0  0  0  0  0  0  0  0  0  0  0  0
    0.7405    0.7589   -0.7033 H   0  0  0  0  0  0  0  0  0  0  0  0
    0.8904    2.1518    0.3777 H   0  0  0  0  0  0  0  0  0  0  0  0
    3.2662   -0.2777    3.0346 H   0  0  0  0  0  0  0  0  0  0  0  0
    2.5942   -1.7173    2.2647 H   0  0  0  0  0  0  0  0  0  0  0  0
    5.3085   -0.3900    1.7756 H   0  0  0  0  0  0  0  0  0  0  0  0
    6.1773   -2.6565    2.2220 H   0  0  0  0  0  0  0  0  0  0  0  0
    4.5314   -3.2815    2.4183 H   0  0  0  0  0  0  0  0  0  0  0  0
    5.1743   -2.0968    3.5693 H   0  0  0  0  0  0  0  0  0  0  0  0
    3.9856   -2.5232    0.0348 H   0  0  0  0  0  0  0  0  0  0  0  0
    5.6229   -1.9243   -0.1609 H   0  0  0  0  0  0  0  0  0  0  0  0
    4.9786   -0.0009   -1.1989 H   0  0  0  0  0  0  0  0  0  0  0  0
    2.3312   -1.5070   -1.4753 H   0  0  0  0  0  0  0  0  0  0  0  0
    3.7889   -1.7761   -2.4491 H   0  0  0  0  0  0  0  0  0  0  0  0
    2.9344   -0.2297   -2.5438 H   0  0  0  0  0  0  0  0  0  0  0  0
    4.0841    1.2518    0.5743 H   0  0  0  0  0  0  0  0  0  0  0  0
    2.7991    1.2516   -0.6047 H   0  0  0  0  0  0  0  0  0  0  0  0
   -3.2510    2.6386    1.2002 H   0  0  0  0  0  0  0  0  0  0  0  0
   -4.4018    4.4750   -0.0167 H   0  0  0  0  0  0  0  0  0  0  0  0
   -0.4029    2.2864   -2.0548 H   0  0  0  0  0  0  0  0  0  0  0  0
   -2.1509    6.2694   -3.6993 H   0  0  0  0  0  0  0  0  0  0  0  0
   -3.2073    5.0721   -4.4880 H   0  0  0  0  0  0  0  0  0  0  0  0
   -1.5780   -1.3022    3.3968 H   0  0  0  0  0  0  0  0  0  0  0  0
   -2.2236    0.0432    4.3521 H   0  0  0  0  0  0  0  0  0  0  0  0
   -3.3044   -1.2821    3.8955 H   0  0  0  0  0  0  0  0  0  0  0  0
   -4.0167   -2.2072    1.8111 H   0  0  0  0  0  0  0  0  0  0  0  0
  1  2  1  0
  2  3  1  0
  3  4  2  0
  4  5  1  0
  5  6  1  0
  5  7  2  0
  7  8  1  0
  8  9  1  0
  9 10  1  0
 10 11  2  0
 10 12  1  0
 12 13  1  0
 13 14  1  0
 14 15  1  0
 14 16  1  0
 16 17  1  0
 17 18  1  0
 17 19  1  0
  8 20  1  0
 20 21  1  0
 21 22  2  0
 22 23  1  0
 23 24  2  0
 24 25  1  0
 24 26  1  0
 26 27  1  0
 27 28  1  0
  7 29  1  0
 29 30  1  0
 30 31  1  0
 29 32  2  0
 32  3  1  0
 19 12  1  0
 25 20  2  0
 28 23  1  0
  1 33  1  0
  1 34  1  0
  1 35  1  0
  4 36  1  0
  6 37  1  0
  8 38  1  0
  9 39  1  0
  9 40  1  0
 13 41  1  0
 13 42  1  0
 14 43  1  0
 15 44  1  0
 15 45  1  0
 15 46  1  0
 16 47  1  0
 16 48  1  0
 17 49  1  0
 18 50  1  0
 18 51  1  0
 18 52  1  0
 19 53  1  0
 19 54  1  0
 21 55  1  0
 22 56  1  0
 25 57  1  0
 27 58  1  0
 27 59  1  0
 31 60  1  0
 31 61  1  0
 31 62  1  0
 32 63  1  0
M  END
>  <QED>  (5) 
0.725

>  <MW>  (5) 
441.5

$$$$
CHEMBL2326408
     RDKit          3D

 63 66  0  0  0  0  0  0  0  0999 V2000
   -5.1135   -3.9561   -1.0005 C   0  0  0  0  0  0  0  0  0  0  0  0
   -4.8951   -3.1951    0.1801 O   0  0  0  0  0  0  0  0  0  0  0  0
   -3.9255   -2.2315    0.1304 C   0  0  0  0  0  0  0  0  0  0  0  0
   -3.1334   -1.9184   -0.9710 C   0  0  0  0  0  0  0  0  0  0  0  0
   -2.1822   -0.8920   -0.8834 C   0  0  0  0  0  0  0  0  0  0  0  0
   -1.4431   -0.5946   -1.9971 O   0  0  0  0  0  0  0  0  0  0  0  0
   -1.9795   -0.1665    0.3016 C   0  0  0  0  0  0  0  0  0  0  0  0
   -0.9631    0.9738    0.4202 C   0  0  0  0  0  0  0  0  0  0  0  0
    0.4834    0.5841    0.0360 C   0  0  0  0  0  0  0  0  0  0  0  0
    1.1189   -0.4125    0.9987 C   0  0  0  0  0  0  0  0  0  0  0  0
    0.6154   -0.6753    2.0907 O   0  0  0  0  0  0  0  0  0  0  0  0
    2.3382   -0.9631    0.6027 N   0  0  0  0  0  0  0  0  0  0  0  0
    2.9874   -1.9461    1.4626 C   0  0  0  0  0  0  0  0  0  0  0  0
    4.4727   -1.6173    1.6832 C   0  0  2  0  0  0  0  0  0  0  0  0
    4.6525   -0.6331    2.8416 C   0  0  0  0  0  0  0  0  0  0  0  0
    5.1616   -1.0808    0.4121 C   0  0  0  0  0  0  0  0  0  0  0  0
    4.3397   -1.3616   -0.8504 C   0  0  2  0  0  0  0  0  0  0  0  0
    5.0463   -0.8370   -2.0979 C   0  0  0  0  0  0  0  0  0  0  0  0
    2.9456   -0.7319   -0.7086 C   0  0  0  0  0  0  0  0  0  0  0  0
   -1.4640    2.2393   -0.2919 C   0  0  0  0  0  0  0  0  0  0  0  0
   -2.3705    3.0904    0.3920 C   0  0  0  0  0  0  0  0  0  0  0  0
   -2.8726    4.2523   -0.2029 C   0  0  0  0  0  0  0  0  0  0  0  0
   -2.4616    4.5419   -1.4836 C   0  0  0  0  0  0  0  0  0  0  0  0
   -1.5925    3.7241   -2.1647 C   0  0  0  0  0  0  0  0  0  0  0  0
   -1.0811    2.5719   -1.6030 C   0  0  0  0  0  0  0  0  0  0  0  0
   -1.3203    4.1837   -3.4163 O   0  0  0  0  0  0  0  0  0  0  0  0
   -2.1172    5.3860   -3.4406 C   0  0  0  0  0  0  0  0  0  0  0  0
   -2.8449    5.6203   -2.2180 O   0  0  0  0  0  0  0  0  0  0  0  0
   -2.7867   -0.5081    1.4038 C   0  0  0  0  0  0  0  0  0  0  0  0
   -2.6692    0.2173    2.5645 O   0  0  0  0  0  0  0  0  0  0  0  0
   -2.3262   -0.6100    3.6773 C   0  0  0  0  0  0  0  0  0  0  0  0
   -3.7550   -1.5153    1.3128 C   0  0  0  0  0  0  0  0  0  0  0  0
   -5.9112   -4.6756   -0.7921 H   0  0  0  0  0  0  0  0  0  0  0  0
   -4.2179   -4.5225   -1.2764 H   0  0  0  0  0  0  0  0  0  0  0  0
   -5.4478   -3.3179   -1.8251 H   0  0  0  0  0  0  0  0  0  0  0  0
   -3.2440   -2.4577   -1.9039 H   0  0  0  0  0  0  0  0  0  0  0  0
   -1.8552   -1.0155   -2.7692 H   0  0  0  0  0  0  0  0  0  0  0  0
   -0.8862    1.2646    1.4770 H   0  0  0  0  0  0  0  0  0  0  0  0
    0.5330    0.1868   -0.9787 H   0  0  0  0  0  0  0  0  0  0  0  0
    1.1142    1.4828    0.0665 H   0  0  0  0  0  0  0  0  0  0  0  0
    2.4711   -2.0485    2.4229 H   0  0  0  0  0  0  0  0  0  0  0  0
    2.8893   -2.9163    0.9590 H   0  0  0  0  0  0  0  0  0  0  0  0
    4.9706   -2.5508    1.9775 H   0  0  0  0  0  0  0  0  0  0  0  0
    5.7145   -0.4310    3.0169 H   0  0  0  0  0  0  0  0  0  0  0  0
    4.2335   -1.0415    3.7673 H   0  0  0  0  0  0  0  0  0  0  0  0
    4.1532    0.3201    2.6368 H   0  0  0  0  0  0  0  0  0  0  0  0
    6.1564   -1.5353    0.3243 H   0  0  0  0  0  0  0  0  0  0  0  0
    5.3288    0.0015    0.4962 H   0  0  0  0  0  0  0  0  0  0  0  0
    4.2309   -2.4489   -0.9597 H   0  0  0  0  0  0  0  0  0  0  0  0
    6.0261   -1.3112   -2.2165 H   0  0  0  0  0  0  0  0  0  0  0  0
    5.1995    0.2463   -2.0450 H   0  0  0  0  0  0  0  0  0  0  0  0
    4.4575   -1.0526   -2.9957 H   0  0  0  0  0  0  0  0  0  0  0  0
    2.9976    0.3516   -0.8664 H   0  0  0  0  0  0  0  0  0  0  0  0
    2.2757   -1.1469   -1.4706 H   0  0  0  0  0  0  0  0  0  0  0  0
   -2.6914    2.8357    1.4019 H   0  0  0  0  0  0  0  0  0  0  0  0
   -3.5646    4.8982    0.3245 H   0  0  0  0  0  0  0  0  0  0  0  0
   -0.4127    1.9459   -2.1824 H   0  0  0  0  0  0  0  0  0  0  0  0
   -1.4558    6.2407   -3.6240 H   0  0  0  0  0  0  0  0  0  0  0  0
   -2.8341    5.3141   -4.2667 H   0  0  0  0  0  0  0  0  0  0  0  0
   -1.6312   -1.4124    3.4057 H   0  0  0  0  0  0  0  0  0  0  0  0
   -1.8381    0.0221    4.4252 H   0  0  0  0  0  0  0  0  0  0  0  0
   -3.2312   -1.0289    4.1283 H   0  0  0  0  0  0  0  0  0  0  0  0
   -4.3948   -1.7361    2.1623 H   0  0  0  0  0  0  0  0  0  0  0  0
  1  2  1  0
  2  3  1  0
  3  4  2  0
  4  5  1  0
  5  6  1  0
  5  7  2  0
  7  8  1  0
  8  9  1  0
  9 10  1  0
 10 11  2  0
 10 12  1  0
 12 13  1  0
 13 14  1  0
 14 15  1  0
 14 16  1  0
 16 17  1  0
 17 18  1  0
 17 19  1  0
  8 20  1  0
 20 21  1  0
 21 22  2  0
 22 23  1  0
 23 24  2  0
 24 25  1  0
 24 26  1  0
 26 27  1  0
 27 28  1  0
  7 29  1  0
 29 30  1  0
 30 31  1  0
 29 32  2  0
 32  3  1  0
 19 12  1  0
 25 20  2  0
 28 23  1  0
  1 33  1  0
  1 34  1  0
  1 35  1  0
  4 36  1  0
  6 37  1  0
  8 38  1  0
  9 39  1  0
  9 40  1  0
 13 41  1  0
 13 42  1  0
 14 43  1  1
 15 44  1  0
 15 45  1  0
 15 46  1  0
 16 47  1  0
 16 48  1  0
 17 49  1  6
 18 50  1  0
 18 51  1  0
 18 52  1  0
 19 53  1  0
 19 54  1  0
 21 55  1  0
 22 56  1  0
 25 57  1  0
 27 58  1  0
 27 59  1  0
 31 60  1  0
 31 61  1  0
 31 62  1  0
 32 63  1  0
M  END
>  <QED>  (6) 
0.725

>  <MW>  (6) 
441.5

$$$$
CHEMBL3317828
     RDKit          3D

 61 63  0  0  0  0  0  0  0  0999 V2000
   -2.6029   -3.2694   -0.7666 C   0  0  0  0  0  0  0  0  0  0  0  0
   -2.1430   -1.8822   -1.2240 C   0  0  0  0  0  0  0  0  0  0  0  0
   -0.6571   -1.9241   -1.5779 C   0  0  0  0  0  0  0  0  0  0  0  0
   -2.4631   -0.8478   -0.1299 C   0  0  0  0  0  0  0  0  0  0  0  0
   -2.1808    0.5413   -0.5711 N   0  0  0  0  0  0  0  0  0  0  0  0
   -1.3502    1.3389    0.3578 C   0  0  0  0  0  0  0  0  0  0  0  0
    0.1236    1.0350    0.2587 C   0  0  0  0  0  0  0  0  0  0  0  0
    0.8008    0.3755    1.2883 C   0  0  0  0  0  0  0  0  0  0  0  0
    2.1707    0.0986    1.1794 C   0  0  0  0  0  0  0  0  0  0  0  0
    2.9091    0.4760    0.0489 C   0  0  0  0  0  0  0  0  0  0  0  0
    4.2820    0.2121   -0.1082 N   0  0  0  0  0  0  0  0  0  0  0  0
    4.8779   -0.8242    0.7484 C   0  0  0  0  0  0  0  0  0  0  0  0
    6.2538   -1.2103    0.2183 C   0  0  0  0  0  0  0  0  0  0  0  0
    7.1450    0.0187    0.0932 C   0  0  0  0  0  0  0  0  0  0  0  0
    8.3954   -0.3744   -0.4669 O   0  0  0  0  0  0  0  0  0  0  0  0
    6.4817    1.0722   -0.7862 C   0  0  0  0  0  0  0  0  0  0  0  0
    5.0983    1.4314   -0.2526 C   0  0  0  0  0  0  0  0  0  0  0  0
    2.2090    1.1261   -0.9806 C   0  0  0  0  0  0  0  0  0  0  0  0
    0.8421    1.4072   -0.8807 C   0  0  0  0  0  0  0  0  0  0  0  0
   -3.3489    1.3813   -1.4536 S   0  0  0  0  0  0  0  0  0  0  0  0
   -2.6535    2.4709   -2.1148 O   0  0  0  0  0  0  0  0  0  0  0  0
   -4.1135    0.4383   -2.2430 O   0  0  0  0  0  0  0  0  0  0  0  0
   -4.4377    2.1532   -0.2372 C   0  0  0  0  0  0  0  0  0  0  0  0
   -5.0920    1.1651    0.6895 C   0  0  0  0  0  0  0  0  0  0  0  0
   -4.7320    1.1178    2.0453 C   0  0  0  0  0  0  0  0  0  0  0  0
   -5.3436    0.2098    2.9115 C   0  0  0  0  0  0  0  0  0  0  0  0
   -6.3287   -0.6530    2.4367 C   0  0  0  0  0  0  0  0  0  0  0  0
   -6.7089   -0.6039    1.0977 C   0  0  0  0  0  0  0  0  0  0  0  0
   -6.1001    0.3041    0.2301 C   0  0  0  0  0  0  0  0  0  0  0  0
   -2.4168   -4.0178   -1.5442 H   0  0  0  0  0  0  0  0  0  0  0  0
   -2.0752   -3.5842    0.1402 H   0  0  0  0  0  0  0  0  0  0  0  0
   -3.6771   -3.2722   -0.5532 H   0  0  0  0  0  0  0  0  0  0  0  0
   -2.6938   -1.6386   -2.1388 H   0  0  0  0  0  0  0  0  0  0  0  0
   -0.3396   -0.9866   -2.0420 H   0  0  0  0  0  0  0  0  0  0  0  0
   -0.4516   -2.7243   -2.2974 H   0  0  0  0  0  0  0  0  0  0  0  0
   -0.0393   -2.1030   -0.6920 H   0  0  0  0  0  0  0  0  0  0  0  0
   -3.5118   -0.9415    0.1591 H   0  0  0  0  0  0  0  0  0  0  0  0
   -1.8891   -1.0849    0.7742 H   0  0  0  0  0  0  0  0  0  0  0  0
   -1.7007    1.1822    1.3853 H   0  0  0  0  0  0  0  0  0  0  0  0
   -1.4687    2.4137    0.1751 H   0  0  0  0  0  0  0  0  0  0  0  0
    0.2727    0.0631    2.1858 H   0  0  0  0  0  0  0  0  0  0  0  0
    2.6465   -0.4099    2.0121 H   0  0  0  0  0  0  0  0  0  0  0  0
    4.2531   -1.7259    0.7541 H   0  0  0  0  0  0  0  0  0  0  0  0
    4.9702   -0.4631    1.7807 H   0  0  0  0  0  0  0  0  0  0  0  0
    6.7224   -1.9488    0.8795 H   0  0  0  0  0  0  0  0  0  0  0  0
    6.1588   -1.6994   -0.7602 H   0  0  0  0  0  0  0  0  0  0  0  0
    7.3457    0.4326    1.0887 H   0  0  0  0  0  0  0  0  0  0  0  0
    8.9289    0.4278   -0.5982 H   0  0  0  0  0  0  0  0  0  0  0  0
    6.4040    0.6977   -1.8154 H   0  0  0  0  0  0  0  0  0  0  0  0
    7.1111    1.9685   -0.8388 H   0  0  0  0  0  0  0  0  0  0  0  0
    5.1896    1.9329    0.7199 H   0  0  0  0  0  0  0  0  0  0  0  0
    4.6507    2.1508   -0.9476 H   0  0  0  0  0  0  0  0  0  0  0  0
    2.7241    1.3930   -1.9005 H   0  0  0  0  0  0  0  0  0  0  0  0
    0.3355    1.8968   -1.7113 H   0  0  0  0  0  0  0  0  0  0  0  0
   -5.2017    2.7017   -0.7996 H   0  0  0  0  0  0  0  0  0  0  0  0
   -3.8461    2.8930    0.3116 H   0  0  0  0  0  0  0  0  0  0  0  0
   -3.9762    1.7911    2.4436 H   0  0  0  0  0  0  0  0  0  0  0  0
   -5.0572    0.1792    3.9598 H   0  0  0  0  0  0  0  0  0  0  0  0
   -6.8064   -1.3591    3.1111 H   0  0  0  0  0  0  0  0  0  0  0  0
   -7.4816   -1.2726    0.7262 H   0  0  0  0  0  0  0  0  0  0  0  0
   -6.4138    0.3239   -0.8132 H   0  0  0  0  0  0  0  0  0  0  0  0
  1  2  1  0
  2  3  1  0
  2  4  1  0
  4  5  1  0
  5  6  1  0
  6  7  1  0
  7  8  1  0
  8  9  2  0
  9 10  1  0
 10 11  1  0
 11 12  1  0
 12 13  1  0
 13 14  1  0
 14 15  1  0
 14 16  1  0
 16 17  1  0
 10 18  2  0
 18 19  1  0
  5 20  1  0
 20 21  2  0
 20 22  2  0
 20 23  1  0
 23 24  1  0
 24 25  2  0
 25 26  1  0
 26 27  2  0
 27 28  1  0
 28 29  2  0
 19  7  2  0
 29 24  1  0
 17 11  1  0
  1 30  1  0
  1 31  1  0
  1 32  1  0
  2 33  1  0
  3 34  1  0
  3 35  1  0
  3 36  1  0
  4 37  1  0
  4 38  1  0
  6 39  1  0
  6 40  1  0
  8 41  1  0
  9 42  1  0
 12 43  1  0
 12 44  1  0
 13 45  1  0
 13 46  1  0
 14 47  1  0
 15 48  1  0
 16 49  1  0
 16 50  1  0
 17 51  1  0
 17 52  1  0
 18 53  1  0
 19 54  1  0
 23 55  1  0
 23 56  1  0
 25 57  1  0
 26 58  1  0
 27 59  1  0
 28 60  1  0
 29 61  1  0
M  END
>  <QED>  (7) 
0.714

>  <MW>  (7) 
416.6

$$$$
CHEMBL2312126
     RDKit          3D

 64 66  0  0  0  0  0  0  0  0999 V2000
   -2.6822    6.1009   -2.4979 C   0  0  0  0  0  0  0  0  0  0  0  0
   -3.5065    5.1593   -1.8237 O   0  0  0  0  0  0  0  0  0  0  0  0
   -2.8741    4.1020   -1.2304 C   0  0  0  0  0  0  0  0  0  0  0  0
   -3.7227    3.1473   -0.6749 C   0  0  0  0  0  0  0  0  0  0  0  0
   -3.2031    2.0163   -0.0389 C   0  0  0  0  0  0  0  0  0  0  0  0
   -1.8154    1.8039    0.0530 C   0  0  0  0  0  0  0  0  0  0  0  0
   -1.3030    0.5658    0.8001 C   0  0  0  0  0  0  0  0  0  0  0  0
    0.2182    0.4276    1.0445 C   0  0  0  0  0  0  0  0  0  0  0  0
    1.0679    0.1266   -0.1788 C   0  0  0  0  0  0  0  0  0  0  0  0
    0.6146    0.2323   -1.3199 O   0  0  0  0  0  0  0  0  0  0  0  0
    2.3930   -0.2339    0.0420 N   0  0  0  0  0  0  0  0  0  0  0  0
    3.1939   -0.6126   -1.1221 C   0  0  0  0  0  0  0  0  0  0  0  0
    4.4600   -1.3824   -0.7410 C   0  0  0  0  0  0  0  0  0  0  0  0
    5.2584   -1.7753   -1.9820 C   0  0  0  0  0  0  0  0  0  0  0  0
    5.3229   -0.5625    0.2290 C   0  0  0  0  0  0  0  0  0  0  0  0
    4.5028    0.1669    1.3103 C   0  0  0  0  0  0  0  0  0  0  0  0
    4.5829    1.6869    1.1253 C   0  0  0  0  0  0  0  0  0  0  0  0
    3.0409   -0.2986    1.3535 C   0  0  0  0  0  0  0  0  0  0  0  0
   -1.9308   -0.7804    0.3944 C   0  0  0  0  0  0  0  0  0  0  0  0
   -2.1703   -1.1578   -0.9367 C   0  0  0  0  0  0  0  0  0  0  0  0
   -1.8124   -0.3998   -2.0156 O   0  0  0  0  0  0  0  0  0  0  0  0
   -2.8039   -2.3593   -1.2526 C   0  0  0  0  0  0  0  0  0  0  0  0
   -3.1847   -3.2463   -0.2518 C   0  0  0  0  0  0  0  0  0  0  0  0
   -3.7823   -4.3927   -0.6990 O   0  0  0  0  0  0  0  0  0  0  0  0
   -4.2470   -5.3098    0.2821 C   0  0  0  0  0  0  0  0  0  0  0  0
   -2.9234   -2.9199    1.0777 C   0  0  0  0  0  0  0  0  0  0  0  0
   -2.3084   -1.6999    1.4064 C   0  0  0  0  0  0  0  0  0  0  0  0
   -2.0104   -1.3301    2.6976 O   0  0  0  0  0  0  0  0  0  0  0  0
   -2.6050   -2.0750    3.7533 C   0  0  0  0  0  0  0  0  0  0  0  0
   -0.9745    2.7844   -0.4921 C   0  0  0  0  0  0  0  0  0  0  0  0
   -1.4971    3.9174   -1.1331 C   0  0  0  0  0  0  0  0  0  0  0  0
   -3.3359    6.8482   -2.9581 H   0  0  0  0  0  0  0  0  0  0  0  0
   -2.1070    5.6239   -3.2985 H   0  0  0  0  0  0  0  0  0  0  0  0
   -2.0247    6.6225   -1.7947 H   0  0  0  0  0  0  0  0  0  0  0  0
   -4.7997    3.2780   -0.7415 H   0  0  0  0  0  0  0  0  0  0  0  0
   -3.8983    1.2914    0.3808 H   0  0  0  0  0  0  0  0  0  0  0  0
   -1.6928    0.7863    1.8069 H   0  0  0  0  0  0  0  0  0  0  0  0
    0.5974    1.3548    1.4917 H   0  0  0  0  0  0  0  0  0  0  0  0
    0.3796   -0.3816    1.7674 H   0  0  0  0  0  0  0  0  0  0  0  0
    3.4463    0.3121   -1.6560 H   0  0  0  0  0  0  0  0  0  0  0  0
    2.5746   -1.2169   -1.7962 H   0  0  0  0  0  0  0  0  0  0  0  0
    4.1613   -2.3092   -0.2322 H   0  0  0  0  0  0  0  0  0  0  0  0
    5.5754   -0.8928   -2.5480 H   0  0  0  0  0  0  0  0  0  0  0  0
    6.1542   -2.3404   -1.7041 H   0  0  0  0  0  0  0  0  0  0  0  0
    4.6572   -2.4046   -2.6466 H   0  0  0  0  0  0  0  0  0  0  0  0
    6.0317   -1.2432    0.7188 H   0  0  0  0  0  0  0  0  0  0  0  0
    5.9400    0.1547   -0.3273 H   0  0  0  0  0  0  0  0  0  0  0  0
    4.9544   -0.0533    2.2866 H   0  0  0  0  0  0  0  0  0  0  0  0
    4.0211    2.2039    1.9105 H   0  0  0  0  0  0  0  0  0  0  0  0
    4.1785    2.0004    0.1575 H   0  0  0  0  0  0  0  0  0  0  0  0
    5.6222    2.0279    1.1827 H   0  0  0  0  0  0  0  0  0  0  0  0
    2.4921    0.2902    2.0930 H   0  0  0  0  0  0  0  0  0  0  0  0
    2.9891   -1.3446    1.6797 H   0  0  0  0  0  0  0  0  0  0  0  0
   -0.9631    0.0499   -1.8121 H   0  0  0  0  0  0  0  0  0  0  0  0
   -2.9876   -2.6069   -2.2952 H   0  0  0  0  0  0  0  0  0  0  0  0
   -4.9968   -4.8477    0.9329 H   0  0  0  0  0  0  0  0  0  0  0  0
   -3.4146   -5.7177    0.8647 H   0  0  0  0  0  0  0  0  0  0  0  0
   -4.7275   -6.1431   -0.2397 H   0  0  0  0  0  0  0  0  0  0  0  0
   -3.1907   -3.6184    1.8589 H   0  0  0  0  0  0  0  0  0  0  0  0
   -3.6944   -2.1163    3.6499 H   0  0  0  0  0  0  0  0  0  0  0  0
   -2.1722   -3.0785    3.8144 H   0  0  0  0  0  0  0  0  0  0  0  0
   -2.3798   -1.5597    4.6920 H   0  0  0  0  0  0  0  0  0  0  0  0
    0.1067    2.6944   -0.4432 H   0  0  0  0  0  0  0  0  0  0  0  0
   -0.7951    4.6351   -1.5438 H   0  0  0  0  0  0  0  0  0  0  0  0
  1  2  1  0
  2  3  1  0
  3  4  1  0
  4  5  2  0
  5  6  1  0
  6  7  1  0
  7  8  1  0
  8  9  1  0
  9 10  2  0
  9 11  1  0
 11 12  1  0
 12 13  1  0
 13 14  1  0
 13 15  1  0
 15 16  1  0
 16 17  1  0
 16 18  1  0
  7 19  1  0
 19 20  2  0
 20 21  1  0
 20 22  1  0
 22 23  2  0
 23 24  1  0
 24 25  1  0
 23 26  1  0
 26 27  2  0
 27 28  1  0
 28 29  1  0
  6 30  2  0
 30 31  1  0
 31  3  2  0
 18 11  1  0
 27 19  1  0
  1 32  1  0
  1 33  1  0
  1 34  1  0
  4 35  1  0
  5 36  1  0
  7 37  1  0
  8 38  1  0
  8 39  1  0
 12 40  1  0
 12 41  1  0
 13 42  1  0
 14 43  1  0
 14 44  1  0
 14 45  1  0
 15 46  1  0
 15 47  1  0
 16 48  1  0
 17 49  1  0
 17 50  1  0
 17 51  1  0
 18 52  1  0
 18 53  1  0
 21 54  1  0
 22 55  1  0
 25 56  1  0
 25 57  1  0
 25 58  1  0
 26 59  1  0
 29 60  1  0
 29 61  1  0
 29 62  1  0
 30 63  1  0
 31 64  1  0
M  END
>  <QED>  (8) 
0.707

>  <MW>  (8) 
427.5

$$$$
CHEMBL3317842
     RDKit          3D

 58 60  0  0  0  0  0  0  0  0999 V2000
   -4.1101   -4.7504   -0.3484 C   0  0  0  0  0  0  0  0  0  0  0  0
   -3.0739   -3.6893   -0.6748 C   0  0  0  0  0  0  0  0  0  0  0  0
   -3.2085   -2.5608    0.2571 N   0  0  0  0  0  0  0  0  0  0  0  0
   -2.4234   -2.6048    1.5012 C   0  0  0  0  0  0  0  0  0  0  0  0
   -1.1152   -1.8564    1.4604 C   0  0  0  0  0  0  0  0  0  0  0  0
   -1.0017   -0.5953    2.0513 C   0  0  0  0  0  0  0  0  0  0  0  0
    0.2024    0.1183    1.9885 C   0  0  0  0  0  0  0  0  0  0  0  0
    1.3398   -0.3911    1.3427 C   0  0  0  0  0  0  0  0  0  0  0  0
    2.5213    0.3320    1.2763 N   0  0  0  0  0  0  0  0  0  0  0  0
    2.8408    1.3364    2.3111 C   0  0  0  0  0  0  0  0  0  0  0  0
    4.3586    1.5113    2.5009 C   0  0  0  0  0  0  0  0  0  0  0  0
    5.0586    1.8044    1.2483 N   0  0  0  0  0  0  0  0  0  0  0  0
    6.1732    2.6231    1.2733 C   0  0  0  0  0  0  0  0  0  0  0  0
    6.8146    2.9450   -0.0530 C   0  0  0  0  0  0  0  0  0  0  0  0
    6.6428    3.0742    2.3175 O   0  0  0  0  0  0  0  0  0  0  0  0
    4.4999    1.1952    0.0375 C   0  0  0  0  0  0  0  0  0  0  0  0
    3.5880   -0.0134    0.3247 C   0  0  0  0  0  0  0  0  0  0  0  0
    1.2048   -1.6604    0.7598 C   0  0  0  0  0  0  0  0  0  0  0  0
    0.0053   -2.3850    0.8168 C   0  0  0  0  0  0  0  0  0  0  0  0
   -3.8958   -1.1155   -0.2677 S   0  0  0  0  0  0  0  0  0  0  0  0
   -5.0069   -1.4826   -1.1252 O   0  0  0  0  0  0  0  0  0  0  0  0
   -4.1010   -0.2854    0.9022 O   0  0  0  0  0  0  0  0  0  0  0  0
   -2.5954   -0.4066   -1.2990 C   0  0  0  0  0  0  0  0  0  0  0  0
   -3.0515    0.9283   -1.8305 C   0  0  0  0  0  0  0  0  0  0  0  0
   -2.7113    2.1112   -1.1579 C   0  0  0  0  0  0  0  0  0  0  0  0
   -3.1313    3.3489   -1.6467 C   0  0  0  0  0  0  0  0  0  0  0  0
   -3.8961    3.4174   -2.8093 C   0  0  0  0  0  0  0  0  0  0  0  0
   -4.2445    2.2485   -3.4829 C   0  0  0  0  0  0  0  0  0  0  0  0
   -3.8254    1.0092   -2.9969 C   0  0  0  0  0  0  0  0  0  0  0  0
   -4.0235   -5.5924   -1.0421 H   0  0  0  0  0  0  0  0  0  0  0  0
   -5.1253   -4.3476   -0.4252 H   0  0  0  0  0  0  0  0  0  0  0  0
   -3.9789   -5.1328    0.6692 H   0  0  0  0  0  0  0  0  0  0  0  0
   -3.2041   -3.3588   -1.7105 H   0  0  0  0  0  0  0  0  0  0  0  0
   -2.0688   -4.1185   -0.6171 H   0  0  0  0  0  0  0  0  0  0  0  0
   -2.2151   -3.6490    1.7697 H   0  0  0  0  0  0  0  0  0  0  0  0
   -3.0459   -2.2375    2.3270 H   0  0  0  0  0  0  0  0  0  0  0  0
   -1.8569   -0.1425    2.5520 H   0  0  0  0  0  0  0  0  0  0  0  0
    0.2202    1.1071    2.4397 H   0  0  0  0  0  0  0  0  0  0  0  0
    2.3986    2.2954    2.0150 H   0  0  0  0  0  0  0  0  0  0  0  0
    2.4196    1.0495    3.2823 H   0  0  0  0  0  0  0  0  0  0  0  0
    4.7943    0.5839    2.8926 H   0  0  0  0  0  0  0  0  0  0  0  0
    4.5484    2.2993    3.2375 H   0  0  0  0  0  0  0  0  0  0  0  0
    6.0668    3.2910   -0.7711 H   0  0  0  0  0  0  0  0  0  0  0  0
    7.3356    2.0645   -0.4375 H   0  0  0  0  0  0  0  0  0  0  0  0
    7.5437    3.7493    0.0847 H   0  0  0  0  0  0  0  0  0  0  0  0
    3.9258    1.9795   -0.4707 H   0  0  0  0  0  0  0  0  0  0  0  0
    5.3122    0.8905   -0.6295 H   0  0  0  0  0  0  0  0  0  0  0  0
    3.1676   -0.3404   -0.6337 H   0  0  0  0  0  0  0  0  0  0  0  0
    4.1851   -0.8363    0.7364 H   0  0  0  0  0  0  0  0  0  0  0  0
    2.0478   -2.1322    0.2628 H   0  0  0  0  0  0  0  0  0  0  0  0
   -0.0339   -3.3689    0.3567 H   0  0  0  0  0  0  0  0  0  0  0  0
   -2.3903   -1.0992   -2.1205 H   0  0  0  0  0  0  0  0  0  0  0  0
   -1.6888   -0.2849   -0.7074 H   0  0  0  0  0  0  0  0  0  0  0  0
   -2.1237    2.0761   -0.2422 H   0  0  0  0  0  0  0  0  0  0  0  0
   -2.8679    4.2597   -1.1153 H   0  0  0  0  0  0  0  0  0  0  0  0
   -4.2284    4.3813   -3.1855 H   0  0  0  0  0  0  0  0  0  0  0  0
   -4.8512    2.3009   -4.3833 H   0  0  0  0  0  0  0  0  0  0  0  0
   -4.1208    0.1066   -3.5287 H   0  0  0  0  0  0  0  0  0  0  0  0
  1  2  1  0
  2  3  1  0
  3  4  1  0
  4  5  1  0
  5  6  1  0
  6  7  2  0
  7  8  1  0
  8  9  1  0
  9 10  1  0
 10 11  1  0
 11 12  1  0
 12 13  1  0
 13 14  1  0
 13 15  2  0
 12 16  1  0
 16 17  1  0
  8 18  2  0
 18 19  1  0
  3 20  1  0
 20 21  2  0
 20 22  2  0
 20 23  1  0
 23 24  1  0
 24 25  2  0
 25 26  1  0
 26 27  2  0
 27 28  1  0
 28 29  2  0
 19  5  2  0
 29 24  1  0
 17  9  1  0
  1 30  1  0
  1 31  1  0
  1 32  1  0
  2 33  1  0
  2 34  1  0
  4 35  1  0
  4 36  1  0
  6 37  1  0
  7 38  1  0
 10 39  1  0
 10 40  1  0
 11 41  1  0
 11 42  1  0
 14 43  1  0
 14 44  1  0
 14 45  1  0
 16 46  1  0
 16 47  1  0
 17 48  1  0
 17 49  1  0
 18 50  1  0
 19 51  1  0
 23 52  1  0
 23 53  1  0
 25 54  1  0
 26 55  1  0
 27 56  1  0
 28 57  1  0
 29 58  1  0
M  END
>  <QED>  (9) 
0.698

>  <MW>  (9) 
415.6

$$$$
CHEMBL3317837
     RDKit          3D

 64 66  0  0  0  0  0  0  0  0999 V2000
    8.7203    0.7692   -0.6607 C   0  0  0  0  0  0  0  0  0  0  0  0
    7.8109    1.3129    0.4113 C   0  0  0  0  0  0  0  0  0  0  0  0
    8.1237    2.3246    1.0393 O   0  0  0  0  0  0  0  0  0  0  0  0
    6.6305    0.6314    0.6427 N   0  0  0  0  0  0  0  0  0  0  0  0
    5.7567    1.0871    1.7307 C   0  0  0  0  0  0  0  0  0  0  0  0
    4.8290   -0.0261    2.2387 C   0  0  0  0  0  0  0  0  0  0  0  0
    3.9914   -0.5756    1.1537 N   0  0  0  0  0  0  0  0  0  0  0  0
    2.6269   -0.2642    1.0915 C   0  0  0  0  0  0  0  0  0  0  0  0
    2.0557    0.8499    1.7180 C   0  0  0  0  0  0  0  0  0  0  0  0
    0.6842    1.1257    1.6187 C   0  0  0  0  0  0  0  0  0  0  0  0
   -0.1658    0.2969    0.8764 C   0  0  0  0  0  0  0  0  0  0  0  0
   -1.6476    0.5969    0.8000 C   0  0  0  0  0  0  0  0  0  0  0  0
   -2.2542    0.3876   -0.5525 N   0  0  0  0  0  0  0  0  0  0  0  0
   -2.3317    1.5990   -1.4644 C   0  0  0  0  0  0  0  0  0  0  0  0
   -3.2357    2.6958   -0.8736 C   0  0  0  0  0  0  0  0  0  0  0  0
   -2.8508    1.2599   -2.8714 C   0  0  0  0  0  0  0  0  0  0  0  0
   -0.9145    2.1799   -1.6597 C   0  0  0  0  0  0  0  0  0  0  0  0
   -3.2924   -0.9704   -0.6675 S   0  0  0  0  0  0  0  0  0  0  0  0
   -2.8134   -1.9503    0.2883 O   0  0  0  0  0  0  0  0  0  0  0  0
   -3.4362   -1.3362   -2.0605 O   0  0  0  0  0  0  0  0  0  0  0  0
   -4.8586   -0.3117   -0.0747 C   0  0  0  0  0  0  0  0  0  0  0  0
   -5.8555   -1.4325    0.0739 C   0  0  0  0  0  0  0  0  0  0  0  0
   -6.0179   -2.0846    1.3047 C   0  0  0  0  0  0  0  0  0  0  0  0
   -6.9424   -3.1214    1.4397 C   0  0  0  0  0  0  0  0  0  0  0  0
   -7.7114   -3.5185    0.3479 C   0  0  0  0  0  0  0  0  0  0  0  0
   -7.5539   -2.8828   -0.8817 C   0  0  0  0  0  0  0  0  0  0  0  0
   -6.6303   -1.8459   -1.0199 C   0  0  0  0  0  0  0  0  0  0  0  0
    0.3888   -0.8290    0.2635 C   0  0  0  0  0  0  0  0  0  0  0  0
    1.7591   -1.0973    0.3680 C   0  0  0  0  0  0  0  0  0  0  0  0
    4.6366   -0.6477   -0.1812 C   0  0  0  0  0  0  0  0  0  0  0  0
    6.1731   -0.5500   -0.1030 C   0  0  0  0  0  0  0  0  0  0  0  0
    9.6872    1.2788   -0.6065 H   0  0  0  0  0  0  0  0  0  0  0  0
    8.2852    0.9529   -1.6463 H   0  0  0  0  0  0  0  0  0  0  0  0
    8.8963   -0.2993   -0.5114 H   0  0  0  0  0  0  0  0  0  0  0  0
    5.1700    1.9259    1.3378 H   0  0  0  0  0  0  0  0  0  0  0  0
    6.3690    1.4658    2.5565 H   0  0  0  0  0  0  0  0  0  0  0  0
    5.4461   -0.8502    2.6204 H   0  0  0  0  0  0  0  0  0  0  0  0
    4.2433    0.3155    3.0986 H   0  0  0  0  0  0  0  0  0  0  0  0
    2.6654    1.5506    2.2793 H   0  0  0  0  0  0  0  0  0  0  0  0
    0.2930    2.0057    2.1242 H   0  0  0  0  0  0  0  0  0  0  0  0
   -2.1514   -0.0087    1.5622 H   0  0  0  0  0  0  0  0  0  0  0  0
   -1.8220    1.6262    1.1258 H   0  0  0  0  0  0  0  0  0  0  0  0
   -3.3197    3.5437   -1.5642 H   0  0  0  0  0  0  0  0  0  0  0  0
   -2.8486    3.0989    0.0666 H   0  0  0  0  0  0  0  0  0  0  0  0
   -4.2482    2.3365   -0.6806 H   0  0  0  0  0  0  0  0  0  0  0  0
   -3.9002    0.9490   -2.8578 H   0  0  0  0  0  0  0  0  0  0  0  0
   -2.2509    0.4735   -3.3423 H   0  0  0  0  0  0  0  0  0  0  0  0
   -2.8023    2.1352   -3.5311 H   0  0  0  0  0  0  0  0  0  0  0  0
   -0.9155    2.9904   -2.3983 H   0  0  0  0  0  0  0  0  0  0  0  0
   -0.2167    1.4117   -2.0112 H   0  0  0  0  0  0  0  0  0  0  0  0
   -0.5133    2.6057   -0.7350 H   0  0  0  0  0  0  0  0  0  0  0  0
   -4.6838    0.1847    0.8843 H   0  0  0  0  0  0  0  0  0  0  0  0
   -5.2255    0.4170   -0.8006 H   0  0  0  0  0  0  0  0  0  0  0  0
   -5.4158   -1.8016    2.1658 H   0  0  0  0  0  0  0  0  0  0  0  0
   -7.0558   -3.6264    2.3955 H   0  0  0  0  0  0  0  0  0  0  0  0
   -8.4259   -4.3307    0.4526 H   0  0  0  0  0  0  0  0  0  0  0  0
   -8.1445   -3.2010   -1.7371 H   0  0  0  0  0  0  0  0  0  0  0  0
   -6.5114   -1.3728   -1.9932 H   0  0  0  0  0  0  0  0  0  0  0  0
   -0.2369   -1.5182   -0.2995 H   0  0  0  0  0  0  0  0  0  0  0  0
    2.1412   -1.9975   -0.1073 H   0  0  0  0  0  0  0  0  0  0  0  0
    4.3729   -1.5903   -0.6742 H   0  0  0  0  0  0  0  0  0  0  0  0
    4.2780    0.1782   -0.8109 H   0  0  0  0  0  0  0  0  0  0  0  0
    6.5866   -0.5447   -1.1153 H   0  0  0  0  0  0  0  0  0  0  0  0
    6.5794   -1.4261    0.4167 H   0  0  0  0  0  0  0  0  0  0  0  0
  1  2  1  0
  2  3  2  0
  2  4  1  0
  4  5  1  0
  5  6  1  0
  6  7  1  0
  7  8  1  0
  8  9  1  0
  9 10  2  0
 10 11  1  0
 11 12  1  0
 12 13  1  0
 13 14  1  0
 14 15  1  0
 14 16  1  0
 14 17  1  0
 13 18  1  0
 18 19  2  0
 18 20  2  0
 18 21  1  0
 21 22  1  0
 22 23  2  0
 23 24  1  0
 24 25  2  0
 25 26  1  0
 26 27  2  0
 11 28  2  0
 28 29  1  0
  7 30  1  0
 30 31  1  0
 31  4  1  0
 29  8  2  0
 27 22  1  0
  1 32  1  0
  1 33  1  0
  1 34  1  0
  5 35  1  0
  5 36  1  0
  6 37  1  0
  6 38  1  0
  9 39  1  0
 10 40  1  0
 12 41  1  0
 12 42  1  0
 15 43  1  0
 15 44  1  0
 15 45  1  0
 16 46  1  0
 16 47  1  0
 16 48  1  0
 17 49  1  0
 17 50  1  0
 17 51  1  0
 21 52  1  0
 21 53  1  0
 23 54  1  0
 24 55  1  0
 25 56  1  0
 26 57  1  0
 27 58  1  0
 28 59  1  0
 29 60  1  0
 30 61  1  0
 30 62  1  0
 31 63  1  0
 31 64  1  0
M  END
>  <QED>  (10) 
0.686

>  <MW>  (10) 
443.6

$$$$
CHEMBL3581529
     RDKit          3D

 59 62  0  0  0  0  0  0  0  0999 V2000
    8.4989    1.2588    0.1987 C   0  0  0  0  0  0  0  0  0  0  0  0
    7.6785    0.4451   -0.7702 C   0  0  0  0  0  0  0  0  0  0  0  0
    8.2224   -0.1491   -1.7006 O   0  0  0  0  0  0  0  0  0  0  0  0
    6.3114    0.4130   -0.5614 N   0  0  0  0  0  0  0  0  0  0  0  0
    5.6140    1.1476    0.4985 C   0  0  0  0  0  0  0  0  0  0  0  0
    4.1046    1.3167    0.2376 C   0  0  0  0  0  0  0  0  0  0  0  0
    3.4539    0.0223   -0.0216 N   0  0  0  0  0  0  0  0  0  0  0  0
    2.0928   -0.1605    0.1745 C   0  0  0  0  0  0  0  0  0  0  0  0
    1.2070    0.9181    0.3312 C   0  0  0  0  0  0  0  0  0  0  0  0
   -0.1692    0.7344    0.5351 C   0  0  0  0  0  0  0  0  0  0  0  0
   -0.7150   -0.5494    0.5850 C   0  0  0  0  0  0  0  0  0  0  0  0
   -2.1869   -0.7789    0.8165 C   0  0  0  0  0  0  0  0  0  0  0  0
   -3.0812   -0.0591   -0.1243 N   0  0  0  0  0  0  0  0  0  0  0  0
   -2.8474   -0.3762   -1.5706 C   0  0  0  0  0  0  0  0  0  0  0  0
   -4.0590   -0.5537   -2.5183 C   0  0  0  0  0  0  0  0  0  0  0  0
   -3.1992    0.0935   -3.6235 C   0  0  0  0  0  0  0  0  0  0  0  0
   -2.3865    0.7714   -2.5021 C   0  0  0  0  0  0  0  0  0  0  0  0
   -4.0716    1.1450    0.5339 S   0  0  0  0  0  0  0  0  0  0  0  0
   -3.2631    1.9473    1.4292 O   0  0  0  0  0  0  0  0  0  0  0  0
   -4.8501    1.7653   -0.5155 O   0  0  0  0  0  0  0  0  0  0  0  0
   -5.2017    0.1901    1.5228 C   0  0  0  0  0  0  0  0  0  0  0  0
   -6.1605   -0.6027    0.8848 C   0  0  0  0  0  0  0  0  0  0  0  0
   -7.0512   -1.3527    1.6522 C   0  0  0  0  0  0  0  0  0  0  0  0
   -6.9858   -1.3027    3.0458 C   0  0  0  0  0  0  0  0  0  0  0  0
   -6.0346   -0.4995    3.6780 C   0  0  0  0  0  0  0  0  0  0  0  0
   -5.1401    0.2541    2.9179 C   0  0  0  0  0  0  0  0  0  0  0  0
    0.1565   -1.6261    0.4481 C   0  0  0  0  0  0  0  0  0  0  0  0
   -0.3165   -2.8797    0.5114 F   0  0  0  0  0  0  0  0  0  0  0  0
    1.5258   -1.4410    0.2446 C   0  0  0  0  0  0  0  0  0  0  0  0
    4.2577   -1.0097   -0.7077 C   0  0  0  0  0  0  0  0  0  0  0  0
    5.4735   -0.4091   -1.4365 C   0  0  0  0  0  0  0  0  0  0  0  0
    9.5602    1.0401    0.0453 H   0  0  0  0  0  0  0  0  0  0  0  0
    8.3340    2.3247    0.0221 H   0  0  0  0  0  0  0  0  0  0  0  0
    8.2497    0.9989    1.2307 H   0  0  0  0  0  0  0  0  0  0  0  0
    6.0755    2.1313    0.6291 H   0  0  0  0  0  0  0  0  0  0  0  0
    5.7677    0.5804    1.4246 H   0  0  0  0  0  0  0  0  0  0  0  0
    3.9511    1.9755   -0.6259 H   0  0  0  0  0  0  0  0  0  0  0  0
    3.6743    1.8025    1.1213 H   0  0  0  0  0  0  0  0  0  0  0  0
    1.5641    1.9433    0.2772 H   0  0  0  0  0  0  0  0  0  0  0  0
   -0.8046    1.6108    0.6472 H   0  0  0  0  0  0  0  0  0  0  0  0
   -2.4305   -1.8460    0.7360 H   0  0  0  0  0  0  0  0  0  0  0  0
   -2.4013   -0.5143    1.8580 H   0  0  0  0  0  0  0  0  0  0  0  0
   -2.1853   -1.2505   -1.6683 H   0  0  0  0  0  0  0  0  0  0  0  0
   -4.3583   -1.5887   -2.7069 H   0  0  0  0  0  0  0  0  0  0  0  0
   -4.9543    0.0240   -2.2745 H   0  0  0  0  0  0  0  0  0  0  0  0
   -2.6212   -0.6285   -4.2117 H   0  0  0  0  0  0  0  0  0  0  0  0
   -3.7263    0.7678   -4.3029 H   0  0  0  0  0  0  0  0  0  0  0  0
   -1.3090    0.8327   -2.6775 H   0  0  0  0  0  0  0  0  0  0  0  0
   -2.7547    1.7669   -2.2325 H   0  0  0  0  0  0  0  0  0  0  0  0
   -6.2211   -0.6340   -0.2001 H   0  0  0  0  0  0  0  0  0  0  0  0
   -7.8012   -1.9717    1.1655 H   0  0  0  0  0  0  0  0  0  0  0  0
   -7.6844   -1.8856    3.6418 H   0  0  0  0  0  0  0  0  0  0  0  0
   -5.9955   -0.4572    4.7640 H   0  0  0  0  0  0  0  0  0  0  0  0
   -4.4078    0.8845    3.4172 H   0  0  0  0  0  0  0  0  0  0  0  0
    2.1404   -2.3320    0.1676 H   0  0  0  0  0  0  0  0  0  0  0  0
    3.6581   -1.5434   -1.4549 H   0  0  0  0  0  0  0  0  0  0  0  0
    4.6027   -1.7362    0.0379 H   0  0  0  0  0  0  0  0  0  0  0  0
    5.1349    0.2449   -2.2496 H   0  0  0  0  0  0  0  0  0  0  0  0
    6.0653   -1.2129   -1.8874 H   0  0  0  0  0  0  0  0  0  0  0  0
  1  2  1  0
  2  3  2  0
  2  4  1  0
  4  5  1  0
  5  6  1  0
  6  7  1  0
  7  8  1  0
  8  9  1  0
  9 10  2  0
 10 11  1  0
 11 12  1  0
 12 13  1  0
 13 14  1  0
 14 15  1  0
 15 16  1  0
 16 17  1  0
 13 18  1  0
 18 19  2  0
 18 20  2  0
 18 21  1  0
 21 22  2  0
 22 23  1  0
 23 24  2  0
 24 25  1  0
 25 26  2  0
 11 27  2  0
 27 28  1  0
 27 29  1  0
  7 30  1  0
 30 31  1  0
 31  4  1  0
 29  8  2  0
 17 14  1  0
 26 21  1  0
  1 32  1  0
  1 33  1  0
  1 34  1  0
  5 35  1  0
  5 36  1  0
  6 37  1  0
  6 38  1  0
  9 39  1  0
 10 40  1  0
 12 41  1  0
 12 42  1  0
 14 43  1  0
 15 44  1  0
 15 45  1  0
 16 46  1  0
 16 47  1  0
 17 48  1  0
 17 49  1  0
 22 50  1  0
 23 51  1  0
 24 52  1  0
 25 53  1  0
 26 54  1  0
 29 55  1  0
 30 56  1  0
 30 57  1  0
 31 58  1  0
 31 59  1  0
M  END
>  <QED>  (11) 
0.685

>  <MW>  (11) 
445.6

$$$$
CHEMBL3317841
     RDKit          3D

 59 62  0  0  0  0  0  0  0  0999 V2000
   -6.9651    2.0689   -0.3661 C   0  0  0  0  0  0  0  0  0  0  0  0
   -6.2448    1.7328    0.9150 C   0  0  0  0  0  0  0  0  0  0  0  0
   -6.4395    2.4035    1.9292 O   0  0  0  0  0  0  0  0  0  0  0  0
   -5.3861    0.6406    0.8920 N   0  0  0  0  0  0  0  0  0  0  0  0
   -4.8620    0.0588   -0.3558 C   0  0  0  0  0  0  0  0  0  0  0  0
   -4.3716   -1.3921   -0.1804 C   0  0  0  0  0  0  0  0  0  0  0  0
   -3.4199   -1.4942    0.9502 N   0  0  0  0  0  0  0  0  0  0  0  0
   -2.0725   -1.2477    0.6721 C   0  0  0  0  0  0  0  0  0  0  0  0
   -1.2505   -0.4441    1.4765 C   0  0  0  0  0  0  0  0  0  0  0  0
    0.0995   -0.2152    1.1699 C   0  0  0  0  0  0  0  0  0  0  0  0
    0.6827   -0.7999    0.0446 C   0  0  0  0  0  0  0  0  0  0  0  0
    2.1362   -0.5657   -0.2978 C   0  0  0  0  0  0  0  0  0  0  0  0
    2.3135    0.0178   -1.6509 N   0  0  0  0  0  0  0  0  0  0  0  0
    2.2167    1.4889   -1.7008 C   0  0  0  0  0  0  0  0  0  0  0  0
    0.8924    2.1913   -1.5551 C   0  0  0  0  0  0  0  0  0  0  0  0
    1.6014    2.2008   -2.8738 C   0  0  0  0  0  0  0  0  0  0  0  0
    3.4458   -0.7124   -2.6783 S   0  0  0  0  0  0  0  0  0  0  0  0
    3.2425   -0.1690   -4.0093 O   0  0  0  0  0  0  0  0  0  0  0  0
    3.3766   -2.1483   -2.4872 O   0  0  0  0  0  0  0  0  0  0  0  0
    5.0588   -0.1143   -2.1363 C   0  0  0  0  0  0  0  0  0  0  0  0
    5.3555   -0.4163   -0.6916 C   0  0  0  0  0  0  0  0  0  0  0  0
    5.4728    0.6286    0.2386 C   0  0  0  0  0  0  0  0  0  0  0  0
    5.7584    0.3598    1.5783 C   0  0  0  0  0  0  0  0  0  0  0  0
    5.9432   -0.9537    2.0023 C   0  0  0  0  0  0  0  0  0  0  0  0
    5.8535   -1.9983    1.0858 C   0  0  0  0  0  0  0  0  0  0  0  0
    5.5708   -1.7316   -0.2547 C   0  0  0  0  0  0  0  0  0  0  0  0
   -0.1048   -1.6362   -0.7485 C   0  0  0  0  0  0  0  0  0  0  0  0
   -1.4511   -1.8567   -0.4316 C   0  0  0  0  0  0  0  0  0  0  0  0
   -4.0329   -1.0213    2.2100 C   0  0  0  0  0  0  0  0  0  0  0  0
   -4.5534    0.4226    2.0841 C   0  0  0  0  0  0  0  0  0  0  0  0
   -7.5560    1.2133   -0.7032 H   0  0  0  0  0  0  0  0  0  0  0  0
   -7.6494    2.9041   -0.1876 H   0  0  0  0  0  0  0  0  0  0  0  0
   -6.2496    2.3722   -1.1346 H   0  0  0  0  0  0  0  0  0  0  0  0
   -5.6283    0.0789   -1.1352 H   0  0  0  0  0  0  0  0  0  0  0  0
   -4.0385    0.7037   -0.6857 H   0  0  0  0  0  0  0  0  0  0  0  0
   -5.2346   -2.0316    0.0472 H   0  0  0  0  0  0  0  0  0  0  0  0
   -3.9685   -1.7613   -1.1280 H   0  0  0  0  0  0  0  0  0  0  0  0
   -1.6365    0.0444    2.3648 H   0  0  0  0  0  0  0  0  0  0  0  0
    0.6843    0.4281    1.8232 H   0  0  0  0  0  0  0  0  0  0  0  0
    2.5918    0.0968    0.4472 H   0  0  0  0  0  0  0  0  0  0  0  0
    2.6410   -1.5317   -0.1998 H   0  0  0  0  0  0  0  0  0  0  0  0
    3.0668    1.9751   -1.2301 H   0  0  0  0  0  0  0  0  0  0  0  0
   -0.0123    1.5985   -1.4871 H   0  0  0  0  0  0  0  0  0  0  0  0
    0.8647    3.1108   -0.9837 H   0  0  0  0  0  0  0  0  0  0  0  0
    2.0597    3.1245   -3.2048 H   0  0  0  0  0  0  0  0  0  0  0  0
    1.1820    1.6028   -3.6755 H   0  0  0  0  0  0  0  0  0  0  0  0
    5.8072   -0.5918   -2.7785 H   0  0  0  0  0  0  0  0  0  0  0  0
    5.0906    0.9608   -2.3417 H   0  0  0  0  0  0  0  0  0  0  0  0
    5.3471    1.6644   -0.0700 H   0  0  0  0  0  0  0  0  0  0  0  0
    5.8444    1.1760    2.2916 H   0  0  0  0  0  0  0  0  0  0  0  0
    6.1678   -1.1639    3.0451 H   0  0  0  0  0  0  0  0  0  0  0  0
    6.0076   -3.0240    1.4129 H   0  0  0  0  0  0  0  0  0  0  0  0
    5.5124   -2.5664   -0.9528 H   0  0  0  0  0  0  0  0  0  0  0  0
    0.3265   -2.1295   -1.6183 H   0  0  0  0  0  0  0  0  0  0  0  0
   -2.0017   -2.5537   -1.0579 H   0  0  0  0  0  0  0  0  0  0  0  0
   -3.3569   -1.1291    3.0655 H   0  0  0  0  0  0  0  0  0  0  0  0
   -4.8861   -1.6773    2.4284 H   0  0  0  0  0  0  0  0  0  0  0  0
   -3.7199    1.1311    2.0163 H   0  0  0  0  0  0  0  0  0  0  0  0
   -5.1217    0.6775    2.9856 H   0  0  0  0  0  0  0  0  0  0  0  0
  1  2  1  0
  2  3  2  0
  2  4  1  0
  4  5  1  0
  5  6  1  0
  6  7  1  0
  7  8  1  0
  8  9  1  0
  9 10  2  0
 10 11  1  0
 11 12  1  0
 12 13  1  0
 13 14  1  0
 14 15  1  0
 15 16  1  0
 13 17  1  0
 17 18  2  0
 17 19  2  0
 17 20  1  0
 20 21  1  0
 21 22  2  0
 22 23  1  0
 23 24  2  0
 24 25  1  0
 25 26  2  0
 11 27  2  0
 27 28  1  0
  7 29  1  0
 29 30  1  0
 30  4  1  0
 28  8  2  0
 16 14  1  0
 26 21  1  0
  1 31  1  0
  1 32  1  0
  1 33  1  0
  5 34  1  0
  5 35  1  0
  6 36  1  0
  6 37  1  0
  9 38  1  0
 10 39  1  0
 12 40  1  0
 12 41  1  0
 14 42  1  0
 15 43  1  0
 15 44  1  0
 16 45  1  0
 16 46  1  0
 20 47  1  0
 20 48  1  0
 22 49  1  0
 23 50  1  0
 24 51  1  0
 25 52  1  0
 26 53  1  0
 27 54  1  0
 28 55  1  0
 29 56  1  0
 29 57  1  0
 30 58  1  0
 30 59  1  0
M  END
>  <QED>  (12) 
0.682

>  <MW>  (12) 
427.6

$$$$
CHEMBL3317840
     RDKit          3D

 61 63  0  0  0  0  0  0  0  0999 V2000
    7.4811    2.6786   -1.6441 C   0  0  0  0  0  0  0  0  0  0  0  0
    7.2569    1.2688   -1.1580 C   0  0  0  0  0  0  0  0  0  0  0  0
    8.1528    0.4297   -1.2470 O   0  0  0  0  0  0  0  0  0  0  0  0
    6.0183    0.9833   -0.6123 N   0  0  0  0  0  0  0  0  0  0  0  0
    4.9417    1.9623   -0.4329 C   0  0  0  0  0  0  0  0  0  0  0  0
    3.8829    1.5271    0.5989 C   0  0  0  0  0  0  0  0  0  0  0  0
    3.3371    0.1982    0.2831 N   0  0  0  0  0  0  0  0  0  0  0  0
    2.0900   -0.2040    0.7365 C   0  0  0  0  0  0  0  0  0  0  0  0
    1.4206    0.4622    1.7738 C   0  0  0  0  0  0  0  0  0  0  0  0
    0.1553    0.0598    2.2251 C   0  0  0  0  0  0  0  0  0  0  0  0
   -0.5012   -1.0251    1.6380 C   0  0  0  0  0  0  0  0  0  0  0  0
   -1.8596   -1.4564    2.1419 C   0  0  0  0  0  0  0  0  0  0  0  0
   -2.7641   -1.9236    1.0488 N   0  0  0  0  0  0  0  0  0  0  0  0
   -3.1809   -3.3566    1.2136 C   0  0  0  0  0  0  0  0  0  0  0  0
   -3.2941   -4.0551   -0.1389 C   0  0  0  0  0  0  0  0  0  0  0  0
   -4.4425   -3.5143    2.0552 C   0  0  0  0  0  0  0  0  0  0  0  0
   -3.9365   -0.7842    0.5376 S   0  0  0  0  0  0  0  0  0  0  0  0
   -4.7020   -1.3942   -0.5298 O   0  0  0  0  0  0  0  0  0  0  0  0
   -4.5901   -0.2923    1.7346 O   0  0  0  0  0  0  0  0  0  0  0  0
   -2.9088    0.5175   -0.1682 C   0  0  0  0  0  0  0  0  0  0  0  0
   -3.7934    1.5793   -0.7710 C   0  0  0  0  0  0  0  0  0  0  0  0
   -4.1486    1.5248   -2.1264 C   0  0  0  0  0  0  0  0  0  0  0  0
   -4.9686    2.5071   -2.6834 C   0  0  0  0  0  0  0  0  0  0  0  0
   -5.4434    3.5515   -1.8928 C   0  0  0  0  0  0  0  0  0  0  0  0
   -5.1021    3.6131   -0.5434 C   0  0  0  0  0  0  0  0  0  0  0  0
   -4.2822    2.6322    0.0163 C   0  0  0  0  0  0  0  0  0  0  0  0
    0.1547   -1.7116    0.6141 C   0  0  0  0  0  0  0  0  0  0  0  0
    1.4202   -1.3009    0.1726 C   0  0  0  0  0  0  0  0  0  0  0  0
    4.2452   -0.7665   -0.3683 C   0  0  0  0  0  0  0  0  0  0  0  0
    5.7251   -0.3854   -0.1820 C   0  0  0  0  0  0  0  0  0  0  0  0
    8.4066    2.7163   -2.2269 H   0  0  0  0  0  0  0  0  0  0  0  0
    6.6632    2.9987   -2.2946 H   0  0  0  0  0  0  0  0  0  0  0  0
    7.5788    3.3549   -0.7912 H   0  0  0  0  0  0  0  0  0  0  0  0
    4.4701    2.0914   -1.4147 H   0  0  0  0  0  0  0  0  0  0  0  0
    5.3663    2.9265   -0.1370 H   0  0  0  0  0  0  0  0  0  0  0  0
    4.3317    1.5025    1.5995 H   0  0  0  0  0  0  0  0  0  0  0  0
    3.0927    2.2872    0.5959 H   0  0  0  0  0  0  0  0  0  0  0  0
    1.8843    1.3045    2.2796 H   0  0  0  0  0  0  0  0  0  0  0  0
   -0.3066    0.6097    3.0428 H   0  0  0  0  0  0  0  0  0  0  0  0
   -1.7049   -2.2402    2.8931 H   0  0  0  0  0  0  0  0  0  0  0  0
   -2.3260   -0.6291    2.6890 H   0  0  0  0  0  0  0  0  0  0  0  0
   -2.3726   -3.8799    1.7419 H   0  0  0  0  0  0  0  0  0  0  0  0
   -3.3526   -5.1403    0.0007 H   0  0  0  0  0  0  0  0  0  0  0  0
   -4.1881   -3.7588   -0.6929 H   0  0  0  0  0  0  0  0  0  0  0  0
   -2.4216   -3.8437   -0.7658 H   0  0  0  0  0  0  0  0  0  0  0  0
   -4.6295   -4.5727    2.2667 H   0  0  0  0  0  0  0  0  0  0  0  0
   -5.3297   -3.1226    1.5481 H   0  0  0  0  0  0  0  0  0  0  0  0
   -4.3440   -2.9937    3.0135 H   0  0  0  0  0  0  0  0  0  0  0  0
   -2.2936    0.9503    0.6237 H   0  0  0  0  0  0  0  0  0  0  0  0
   -2.2631    0.0667   -0.9280 H   0  0  0  0  0  0  0  0  0  0  0  0
   -3.7998    0.7086   -2.7565 H   0  0  0  0  0  0  0  0  0  0  0  0
   -5.2438    2.4521   -3.7335 H   0  0  0  0  0  0  0  0  0  0  0  0
   -6.0868    4.3123   -2.3265 H   0  0  0  0  0  0  0  0  0  0  0  0
   -5.4816    4.4216    0.0761 H   0  0  0  0  0  0  0  0  0  0  0  0
   -4.0382    2.6905    1.0754 H   0  0  0  0  0  0  0  0  0  0  0  0
   -0.3141   -2.5685    0.1355 H   0  0  0  0  0  0  0  0  0  0  0  0
    1.8648   -1.8537   -0.6510 H   0  0  0  0  0  0  0  0  0  0  0  0
    4.0103   -0.8001   -1.4390 H   0  0  0  0  0  0  0  0  0  0  0  0
    4.1111   -1.7737    0.0446 H   0  0  0  0  0  0  0  0  0  0  0  0
    6.3587   -1.0985   -0.7202 H   0  0  0  0  0  0  0  0  0  0  0  0
    5.9941   -0.4435    0.8799 H   0  0  0  0  0  0  0  0  0  0  0  0
  1  2  1  0
  2  3  2  0
  2  4  1  0
  4  5  1  0
  5  6  1  0
  6  7  1  0
  7  8  1  0
  8  9  1  0
  9 10  2  0
 10 11  1  0
 11 12  1  0
 12 13  1  0
 13 14  1  0
 14 15  1  0
 14 16  1  0
 13 17  1  0
 17 18  2  0
 17 19  2  0
 17 20  1  0
 20 21  1  0
 21 22  2  0
 22 23  1  0
 23 24  2  0
 24 25  1  0
 25 26  2  0
 11 27  2  0
 27 28  1  0
  7 29  1  0
 29 30  1  0
 30  4  1  0
 28  8  2  0
 26 21  1  0
  1 31  1  0
  1 32  1  0
  1 33  1  0
  5 34  1  0
  5 35  1  0
  6 36  1  0
  6 37  1  0
  9 38  1  0
 10 39  1  0
 12 40  1  0
 12 41  1  0
 14 42  1  0
 15 43  1  0
 15 44  1  0
 15 45  1  0
 16 46  1  0
 16 47  1  0
 16 48  1  0
 20 49  1  0
 20 50  1  0
 22 51  1  0
 23 52  1  0
 24 53  1  0
 25 54  1  0
 26 55  1  0
 27 56  1  0
 28 57  1  0
 29 58  1  0
 29 59  1  0
 30 60  1  0
 30 61  1  0
M  END
>  <QED>  (13) 
0.679

>  <MW>  (13) 
429.6

$$$$
CHEMBL3234256
     RDKit          3D

 48 51  0  0  0  0  0  0  0  0999 V2000
   -6.8535    0.7350   -1.7321 C   0  0  0  0  0  0  0  0  0  0  0  0
   -6.6108   -0.5576   -0.9704 C   0  0  0  0  0  0  0  0  0  0  0  0
   -5.4319   -0.4838   -0.1429 N   0  0  0  0  0  0  0  0  0  0  0  0
   -5.4141   -0.0639    1.1837 C   0  0  0  0  0  0  0  0  0  0  0  0
   -6.3367    0.2730    1.8991 O   0  0  0  0  0  0  0  0  0  0  0  0
   -3.9901   -0.0927    1.5791 C   0  0  0  0  0  0  0  0  0  0  0  0
   -3.3707    0.2074    2.7739 C   0  0  0  0  0  0  0  0  0  0  0  0
   -1.9766    0.0814    2.8236 C   0  0  0  0  0  0  0  0  0  0  0  0
   -1.2383   -0.3311    1.6886 C   0  0  0  0  0  0  0  0  0  0  0  0
   -1.8810   -0.6334    0.4541 C   0  0  0  0  0  0  0  0  0  0  0  0
   -1.3680   -1.0490   -0.8071 C   0  0  0  0  0  0  0  0  0  0  0  0
    0.3817   -1.2678   -1.0409 S   0  0  0  0  0  0  0  0  0  0  0  0
    0.8786   -2.0670    0.0556 O   0  0  0  0  0  0  0  0  0  0  0  0
    0.6007   -1.6471   -2.4224 O   0  0  0  0  0  0  0  0  0  0  0  0
    0.9353    0.3440   -0.9100 N   0  0  0  0  0  0  0  0  0  0  0  0
    2.3475    0.4486   -0.6832 C   0  0  0  0  0  0  0  0  0  0  0  0
    3.2458    0.3468   -1.7431 C   0  0  0  0  0  0  0  0  0  0  0  0
    4.6208    0.4070   -1.4950 C   0  0  0  0  0  0  0  0  0  0  0  0
    5.1078    0.5629   -0.1899 C   0  0  0  0  0  0  0  0  0  0  0  0
    6.5073    0.6133   -0.0271 N   0  0  0  0  0  0  0  0  0  0  0  0
    7.2115    0.8019    1.1487 C   0  0  0  0  0  0  0  0  0  0  0  0
    8.7042    0.7774    0.9309 C   0  0  0  0  0  0  0  0  0  0  0  0
    6.7453    1.0030    2.2642 O   0  0  0  0  0  0  0  0  0  0  0  0
    4.1954    0.6458    0.8638 C   0  0  0  0  0  0  0  0  0  0  0  0
    2.8190    0.5805    0.6189 C   0  0  0  0  0  0  0  0  0  0  0  0
   -2.2326   -1.3009   -1.9057 C   0  0  0  0  0  0  0  0  0  0  0  0
   -3.6225   -1.1381   -1.7880 C   0  0  0  0  0  0  0  0  0  0  0  0
   -4.1178   -0.7293   -0.5684 C   0  0  0  0  0  0  0  0  0  0  0  0
   -3.2677   -0.4940    0.4836 C   0  0  0  0  0  0  0  0  0  0  0  0
   -6.9666    1.5802   -1.0450 H   0  0  0  0  0  0  0  0  0  0  0  0
   -6.0192    0.9610   -2.4040 H   0  0  0  0  0  0  0  0  0  0  0  0
   -7.7647    0.6573   -2.3330 H   0  0  0  0  0  0  0  0  0  0  0  0
   -6.5198   -1.4035   -1.6599 H   0  0  0  0  0  0  0  0  0  0  0  0
   -7.4725   -0.7539   -0.3221 H   0  0  0  0  0  0  0  0  0  0  0  0
   -3.9455    0.5240    3.6378 H   0  0  0  0  0  0  0  0  0  0  0  0
   -1.4497    0.3012    3.7508 H   0  0  0  0  0  0  0  0  0  0  0  0
   -0.1581   -0.4210    1.7857 H   0  0  0  0  0  0  0  0  0  0  0  0
    0.6858    0.8106   -1.7845 H   0  0  0  0  0  0  0  0  0  0  0  0
    2.8943    0.2062   -2.7617 H   0  0  0  0  0  0  0  0  0  0  0  0
    5.3025    0.3234   -2.3375 H   0  0  0  0  0  0  0  0  0  0  0  0
    7.0553    0.5131   -0.8721 H   0  0  0  0  0  0  0  0  0  0  0  0
    9.2017    0.4900    1.8617 H   0  0  0  0  0  0  0  0  0  0  0  0
    8.9769    0.0480    0.1628 H   0  0  0  0  0  0  0  0  0  0  0  0
    9.0421    1.7723    0.6296 H   0  0  0  0  0  0  0  0  0  0  0  0
    4.5200    0.7500    1.8946 H   0  0  0  0  0  0  0  0  0  0  0  0
    2.1272    0.6351    1.4542 H   0  0  0  0  0  0  0  0  0  0  0  0
   -1.8258   -1.6312   -2.8611 H   0  0  0  0  0  0  0  0  0  0  0  0
   -4.2725   -1.3347   -2.6333 H   0  0  0  0  0  0  0  0  0  0  0  0
  1  2  1  0
  2  3  1  0
  3  4  1  0
  4  5  2  0
  4  6  1  0
  6  7  1  0
  7  8  2  0
  8  9  1  0
  9 10  2  0
 10 11  1  0
 11 12  1  0
 12 13  2  0
 12 14  2  0
 12 15  1  0
 15 16  1  0
 16 17  1  0
 17 18  2  0
 18 19  1  0
 19 20  1  0
 20 21  1  0
 21 22  1  0
 21 23  2  0
 19 24  2  0
 24 25  1  0
 11 26  2  0
 26 27  1  0
 27 28  2  0
 28 29  1  0
 28  3  1  0
 29  6  2  0
 29 10  1  0
 25 16  2  0
  1 30  1  0
  1 31  1  0
  1 32  1  0
  2 33  1  0
  2 34  1  0
  7 35  1  0
  8 36  1  0
  9 37  1  0
 15 38  1  0
 17 39  1  0
 18 40  1  0
 20 41  1  0
 22 42  1  0
 22 43  1  0
 22 44  1  0
 24 45  1  0
 25 46  1  0
 26 47  1  0
 27 48  1  0
M  END
>  <QED>  (14) 
0.673

>  <MW>  (14) 
409.5

$$$$
CHEMBL3234259
     RDKit          3D

 49 52  0  0  0  0  0  0  0  0999 V2000
    5.4952    1.5924    1.3835 C   0  0  0  0  0  0  0  0  0  0  0  0
    5.5551    0.6250    0.2129 C   0  0  0  0  0  0  0  0  0  0  0  0
    4.2636    0.4405   -0.4023 N   0  0  0  0  0  0  0  0  0  0  0  0
    3.7674    1.2006   -1.4559 C   0  0  0  0  0  0  0  0  0  0  0  0
    4.2966    2.1034   -2.0733 O   0  0  0  0  0  0  0  0  0  0  0  0
    2.3995    0.6917   -1.6878 C   0  0  0  0  0  0  0  0  0  0  0  0
    1.4404    1.0617   -2.6061 C   0  0  0  0  0  0  0  0  0  0  0  0
    0.2180    0.3834   -2.5614 C   0  0  0  0  0  0  0  0  0  0  0  0
   -0.0180   -0.6360   -1.6077 C   0  0  0  0  0  0  0  0  0  0  0  0
    0.9716   -1.0142   -0.6512 C   0  0  0  0  0  0  0  0  0  0  0  0
    0.9737   -1.9705    0.4084 C   0  0  0  0  0  0  0  0  0  0  0  0
   -0.4421   -2.9972    0.7424 S   0  0  0  0  0  0  0  0  0  0  0  0
    0.0162   -4.1272    1.5259 O   0  0  0  0  0  0  0  0  0  0  0  0
   -1.1927   -3.2163   -0.4734 O   0  0  0  0  0  0  0  0  0  0  0  0
   -1.3374   -2.0497    1.8136 N   0  0  0  0  0  0  0  0  0  0  0  0
   -2.0959   -0.9640    1.3055 C   0  0  0  0  0  0  0  0  0  0  0  0
   -1.6338    0.3297    1.5248 C   0  0  0  0  0  0  0  0  0  0  0  0
   -2.3543    1.4186    1.0315 C   0  0  0  0  0  0  0  0  0  0  0  0
   -3.5422    1.2146    0.3207 C   0  0  0  0  0  0  0  0  0  0  0  0
   -4.3118    2.2209   -0.2073 O   0  0  0  0  0  0  0  0  0  0  0  0
   -3.8530    3.5558   -0.0494 C   0  0  0  0  0  0  0  0  0  0  0  0
   -4.0109   -0.0996    0.1093 C   0  0  0  0  0  0  0  0  0  0  0  0
   -5.1843   -0.2166   -0.5949 O   0  0  0  0  0  0  0  0  0  0  0  0
   -5.5653   -1.5177   -1.0215 C   0  0  0  0  0  0  0  0  0  0  0  0
   -3.2881   -1.1842    0.6180 C   0  0  0  0  0  0  0  0  0  0  0  0
    2.1204   -2.1523    1.2300 C   0  0  0  0  0  0  0  0  0  0  0  0
    3.2824   -1.3892    1.0407 C   0  0  0  0  0  0  0  0  0  0  0  0
    3.2754   -0.4587    0.0252 C   0  0  0  0  0  0  0  0  0  0  0  0
    2.1637   -0.2977   -0.7651 C   0  0  0  0  0  0  0  0  0  0  0  0
    4.8296    1.2217    2.1698 H   0  0  0  0  0  0  0  0  0  0  0  0
    5.1218    2.5714    1.0650 H   0  0  0  0  0  0  0  0  0  0  0  0
    6.4912    1.7294    1.8154 H   0  0  0  0  0  0  0  0  0  0  0  0
    6.2403    1.0257   -0.5429 H   0  0  0  0  0  0  0  0  0  0  0  0
    5.9495   -0.3458    0.5310 H   0  0  0  0  0  0  0  0  0  0  0  0
    1.6318    1.8456   -3.3310 H   0  0  0  0  0  0  0  0  0  0  0  0
   -0.5685    0.6412   -3.2690 H   0  0  0  0  0  0  0  0  0  0  0  0
   -0.9913   -1.1218   -1.6271 H   0  0  0  0  0  0  0  0  0  0  0  0
   -1.7339   -2.5977    2.5766 H   0  0  0  0  0  0  0  0  0  0  0  0
   -0.7113    0.5009    2.0732 H   0  0  0  0  0  0  0  0  0  0  0  0
   -1.9612    2.4126    1.2165 H   0  0  0  0  0  0  0  0  0  0  0  0
   -4.5728    4.2173   -0.5413 H   0  0  0  0  0  0  0  0  0  0  0  0
   -2.8826    3.7007   -0.5356 H   0  0  0  0  0  0  0  0  0  0  0  0
   -3.8128    3.8366    1.0081 H   0  0  0  0  0  0  0  0  0  0  0  0
   -5.8390   -2.1450   -0.1671 H   0  0  0  0  0  0  0  0  0  0  0  0
   -6.4515   -1.4154   -1.6552 H   0  0  0  0  0  0  0  0  0  0  0  0
   -4.7790   -1.9868   -1.6225 H   0  0  0  0  0  0  0  0  0  0  0  0
   -3.6271   -2.2044    0.4759 H   0  0  0  0  0  0  0  0  0  0  0  0
    2.1094   -2.8947    2.0279 H   0  0  0  0  0  0  0  0  0  0  0  0
    4.1477   -1.5385    1.6767 H   0  0  0  0  0  0  0  0  0  0  0  0
  1  2  1  0
  2  3  1  0
  3  4  1  0
  4  5  2  0
  4  6  1  0
  6  7  1  0
  7  8  2  0
  8  9  1  0
  9 10  2  0
 10 11  1  0
 11 12  1  0
 12 13  2  0
 12 14  2  0
 12 15  1  0
 15 16  1  0
 16 17  1  0
 17 18  2  0
 18 19  1  0
 19 20  1  0
 20 21  1  0
 19 22  2  0
 22 23  1  0
 23 24  1  0
 22 25  1  0
 11 26  2  0
 26 27  1  0
 27 28  2  0
 28 29  1  0
 28  3  1  0
 29  6  2  0
 29 10  1  0
 25 16  2  0
  1 30  1  0
  1 31  1  0
  1 32  1  0
  2 33  1  0
  2 34  1  0
  7 35  1  0
  8 36  1  0
  9 37  1  0
 15 38  1  0
 17 39  1  0
 18 40  1  0
 21 41  1  0
 21 42  1  0
 21 43  1  0
 24 44  1  0
 24 45  1  0
 24 46  1  0
 25 47  1  0
 26 48  1  0
 27 49  1  0
M  END
>  <QED>  (15) 
0.668

>  <MW>  (15) 
412.5

$$$$
CHEMBL3234255
     RDKit          3D

 46 49  0  0  0  0  0  0  0  0999 V2000
   -6.7662    0.3062   -0.3298 C   0  0  0  0  0  0  0  0  0  0  0  0
   -6.0133   -0.8040    0.3846 C   0  0  0  0  0  0  0  0  0  0  0  0
   -4.7058   -0.3776    0.8193 N   0  0  0  0  0  0  0  0  0  0  0  0
   -4.4249    0.1944    2.0565 C   0  0  0  0  0  0  0  0  0  0  0  0
   -5.1654    0.3983    2.9979 O   0  0  0  0  0  0  0  0  0  0  0  0
   -2.9871    0.5342    2.0076 C   0  0  0  0  0  0  0  0  0  0  0  0
   -2.1567    1.1147    2.9429 C   0  0  0  0  0  0  0  0  0  0  0  0
   -0.8210    1.3196    2.5754 C   0  0  0  0  0  0  0  0  0  0  0  0
   -0.3487    0.9449    1.2948 C   0  0  0  0  0  0  0  0  0  0  0  0
   -1.2083    0.3428    0.3319 C   0  0  0  0  0  0  0  0  0  0  0  0
   -0.9757   -0.1159   -0.9959 C   0  0  0  0  0  0  0  0  0  0  0  0
    0.6426    0.0037   -1.7221 S   0  0  0  0  0  0  0  0  0  0  0  0
    0.5748   -0.5470   -3.0608 O   0  0  0  0  0  0  0  0  0  0  0  0
    1.1486    1.3347   -1.4753 O   0  0  0  0  0  0  0  0  0  0  0  0
    1.5062   -1.1494   -0.8006 N   0  0  0  0  0  0  0  0  0  0  0  0
    2.9246   -0.9353   -0.7958 C   0  0  0  0  0  0  0  0  0  0  0  0
    3.7037   -1.3097   -1.8906 C   0  0  0  0  0  0  0  0  0  0  0  0
    5.0735   -1.0461   -1.8871 C   0  0  0  0  0  0  0  0  0  0  0  0
    5.6618   -0.4000   -0.7961 C   0  0  0  0  0  0  0  0  0  0  0  0
    4.8770   -0.0114    0.2971 C   0  0  0  0  0  0  0  0  0  0  0  0
    5.4532    0.6855    1.4844 C   0  0  0  0  0  0  0  0  0  0  0  0
    6.8892    1.1376    1.4401 C   0  0  0  0  0  0  0  0  0  0  0  0
    4.7567    0.8737    2.4798 O   0  0  0  0  0  0  0  0  0  0  0  0
    3.5027   -0.2823    0.2904 C   0  0  0  0  0  0  0  0  0  0  0  0
   -2.0249   -0.6720   -1.7758 C   0  0  0  0  0  0  0  0  0  0  0  0
   -3.3235   -0.8034   -1.2579 C   0  0  0  0  0  0  0  0  0  0  0  0
   -3.5440   -0.3739    0.0331 C   0  0  0  0  0  0  0  0  0  0  0  0
   -2.5210    0.1711    0.7688 C   0  0  0  0  0  0  0  0  0  0  0  0
   -7.7609   -0.0392   -0.6278 H   0  0  0  0  0  0  0  0  0  0  0  0
   -6.2333    0.6306   -1.2294 H   0  0  0  0  0  0  0  0  0  0  0  0
   -6.8867    1.1797    0.3196 H   0  0  0  0  0  0  0  0  0  0  0  0
   -5.9140   -1.6834   -0.2603 H   0  0  0  0  0  0  0  0  0  0  0  0
   -6.5855   -1.1082    1.2685 H   0  0  0  0  0  0  0  0  0  0  0  0
   -2.5295    1.4035    3.9198 H   0  0  0  0  0  0  0  0  0  0  0  0
   -0.1323    1.7802    3.2823 H   0  0  0  0  0  0  0  0  0  0  0  0
    0.6951    1.1427    1.0595 H   0  0  0  0  0  0  0  0  0  0  0  0
    1.2906   -2.0610   -1.2112 H   0  0  0  0  0  0  0  0  0  0  0  0
    3.2559   -1.7925   -2.7559 H   0  0  0  0  0  0  0  0  0  0  0  0
    5.6827   -1.3362   -2.7406 H   0  0  0  0  0  0  0  0  0  0  0  0
    6.7312   -0.2107   -0.8253 H   0  0  0  0  0  0  0  0  0  0  0  0
    7.1021    1.7433    2.3266 H   0  0  0  0  0  0  0  0  0  0  0  0
    7.0667    1.7618    0.5604 H   0  0  0  0  0  0  0  0  0  0  0  0
    7.5564    0.2719    1.4455 H   0  0  0  0  0  0  0  0  0  0  0  0
    2.8851    0.0166    1.1336 H   0  0  0  0  0  0  0  0  0  0  0  0
   -1.8352   -1.0037   -2.7962 H   0  0  0  0  0  0  0  0  0  0  0  0
   -4.1163   -1.2289   -1.8631 H   0  0  0  0  0  0  0  0  0  0  0  0
  1  2  1  0
  2  3  1  0
  3  4  1  0
  4  5  2  0
  4  6  1  0
  6  7  1  0
  7  8  2  0
  8  9  1  0
  9 10  2  0
 10 11  1  0
 11 12  1  0
 12 13  2  0
 12 14  2  0
 12 15  1  0
 15 16  1  0
 16 17  2  0
 17 18  1  0
 18 19  2  0
 19 20  1  0
 20 21  1  0
 21 22  1  0
 21 23  2  0
 20 24  2  0
 11 25  2  0
 25 26  1  0
 26 27  2  0
 27 28  1  0
 27  3  1  0
 28  6  2  0
 28 10  1  0
 24 16  1  0
  1 29  1  0
  1 30  1  0
  1 31  1  0
  2 32  1  0
  2 33  1  0
  7 34  1  0
  8 35  1  0
  9 36  1  0
 15 37  1  0
 17 38  1  0
 18 39  1  0
 19 40  1  0
 22 41  1  0
 22 42  1  0
 22 43  1  0
 24 44  1  0
 25 45  1  0
 26 46  1  0
M  END
>  <QED>  (16) 
0.667

>  <MW>  (16) 
394.5

$$$$
CHEMBL3234251
     RDKit          3D

 46 49  0  0  0  0  0  0  0  0999 V2000
    3.1127    3.4618   -1.5735 C   0  0  0  0  0  0  0  0  0  0  0  0
    3.9782    2.8595   -0.4790 C   0  0  0  0  0  0  0  0  0  0  0  0
    3.7568    1.4417   -0.3340 N   0  0  0  0  0  0  0  0  0  0  0  0
    4.4666    0.4521   -1.0060 C   0  0  0  0  0  0  0  0  0  0  0  0
    5.3981    0.5596   -1.7786 O   0  0  0  0  0  0  0  0  0  0  0  0
    3.8399   -0.8207   -0.5917 C   0  0  0  0  0  0  0  0  0  0  0  0
    4.1342   -2.1259   -0.9232 C   0  0  0  0  0  0  0  0  0  0  0  0
    3.3396   -3.1259   -0.3512 C   0  0  0  0  0  0  0  0  0  0  0  0
    2.2745   -2.8036    0.5245 C   0  0  0  0  0  0  0  0  0  0  0  0
    1.9624   -1.4521    0.8561 C   0  0  0  0  0  0  0  0  0  0  0  0
    0.9593   -0.8760    1.6892 C   0  0  0  0  0  0  0  0  0  0  0  0
   -0.2471   -1.8960    2.5087 S   0  0  0  0  0  0  0  0  0  0  0  0
   -0.5046   -3.0810    1.7214 O   0  0  0  0  0  0  0  0  0  0  0  0
    0.1688   -1.9821    3.8921 O   0  0  0  0  0  0  0  0  0  0  0  0
   -1.6423   -0.9639    2.5108 N   0  0  0  0  0  0  0  0  0  0  0  0
   -2.4893   -0.7653    1.3836 C   0  0  0  0  0  0  0  0  0  0  0  0
   -3.7428   -0.1935    1.6293 C   0  0  0  0  0  0  0  0  0  0  0  0
   -4.6204    0.1018    0.5779 C   0  0  0  0  0  0  0  0  0  0  0  0
   -4.2429   -0.1572   -0.7422 C   0  0  0  0  0  0  0  0  0  0  0  0
   -5.1341    0.1408   -1.9025 C   0  0  0  0  0  0  0  0  0  0  0  0
   -6.5429    0.6052   -1.6407 C   0  0  0  0  0  0  0  0  0  0  0  0
   -4.7092    0.0110   -3.0484 O   0  0  0  0  0  0  0  0  0  0  0  0
   -2.9794   -0.7053   -0.9916 C   0  0  0  0  0  0  0  0  0  0  0  0
   -2.1064   -1.0004    0.0632 C   0  0  0  0  0  0  0  0  0  0  0  0
    0.8818    0.5316    1.8781 C   0  0  0  0  0  0  0  0  0  0  0  0
    1.7755    1.4035    1.2375 C   0  0  0  0  0  0  0  0  0  0  0  0
    2.7373    0.8464    0.4238 C   0  0  0  0  0  0  0  0  0  0  0  0
    2.8062   -0.5151    0.2586 C   0  0  0  0  0  0  0  0  0  0  0  0
    2.0482    3.3376   -1.3497 H   0  0  0  0  0  0  0  0  0  0  0  0
    3.3178    4.5318   -1.6753 H   0  0  0  0  0  0  0  0  0  0  0  0
    3.3088    2.9815   -2.5379 H   0  0  0  0  0  0  0  0  0  0  0  0
    3.7948    3.3569    0.4792 H   0  0  0  0  0  0  0  0  0  0  0  0
    5.0324    3.0173   -0.7340 H   0  0  0  0  0  0  0  0  0  0  0  0
    4.9514   -2.3617   -1.5965 H   0  0  0  0  0  0  0  0  0  0  0  0
    3.5417   -4.1708   -0.5812 H   0  0  0  0  0  0  0  0  0  0  0  0
    1.7000   -3.6282    0.9424 H   0  0  0  0  0  0  0  0  0  0  0  0
   -2.0200   -0.8319    3.4476 H   0  0  0  0  0  0  0  0  0  0  0  0
   -4.0578    0.0280    2.6464 H   0  0  0  0  0  0  0  0  0  0  0  0
   -5.5848    0.5392    0.8195 H   0  0  0  0  0  0  0  0  0  0  0  0
   -7.0678   -0.1093   -1.0012 H   0  0  0  0  0  0  0  0  0  0  0  0
   -7.0839    0.6634   -2.5903 H   0  0  0  0  0  0  0  0  0  0  0  0
   -6.5333    1.6002   -1.1887 H   0  0  0  0  0  0  0  0  0  0  0  0
   -2.6626   -0.9096   -2.0139 H   0  0  0  0  0  0  0  0  0  0  0  0
   -1.1412   -1.4259   -0.1921 H   0  0  0  0  0  0  0  0  0  0  0  0
    0.1222    0.9562    2.5320 H   0  0  0  0  0  0  0  0  0  0  0  0
    1.7037    2.4747    1.3886 H   0  0  0  0  0  0  0  0  0  0  0  0
  1  2  1  0
  2  3  1  0
  3  4  1  0
  4  5  2  0
  4  6  1  0
  6  7  1  0
  7  8  2  0
  8  9  1  0
  9 10  2  0
 10 11  1  0
 11 12  1  0
 12 13  2  0
 12 14  2  0
 12 15  1  0
 15 16  1  0
 16 17  1  0
 17 18  2  0
 18 19  1  0
 19 20  1  0
 20 21  1  0
 20 22  2  0
 19 23  2  0
 23 24  1  0
 11 25  2  0
 25 26  1  0
 26 27  2  0
 27 28  1  0
 27  3  1  0
 28  6  2  0
 28 10  1  0
 24 16  2  0
  1 29  1  0
  1 30  1  0
  1 31  1  0
  2 32  1  0
  2 33  1  0
  7 34  1  0
  8 35  1  0
  9 36  1  0
 15 37  1  0
 17 38  1  0
 18 39  1  0
 21 40  1  0
 21 41  1  0
 21 42  1  0
 23 43  1  0
 24 44  1  0
 25 45  1  0
 26 46  1  0
M  END
>  <QED>  (17) 
0.667

>  <MW>  (17) 
394.5

$$$$
CHEMBL3317836
     RDKit          3D

 62 65  0  0  0  0  0  0  0  0999 V2000
    7.2421    2.6831   -2.7831 C   0  0  0  0  0  0  0  0  0  0  0  0
    7.2185    1.7295   -1.6161 C   0  0  0  0  0  0  0  0  0  0  0  0
    7.7925    2.0194   -0.5665 O   0  0  0  0  0  0  0  0  0  0  0  0
    6.5398    0.5329   -1.7932 N   0  0  0  0  0  0  0  0  0  0  0  0
    6.4038   -0.3604   -0.6393 C   0  0  0  0  0  0  0  0  0  0  0  0
    5.0359   -0.1643    0.0471 C   0  0  0  0  0  0  0  0  0  0  0  0
    3.9324   -0.3190   -0.9460 N   0  0  0  0  0  0  0  0  0  0  0  0
    2.6579   -0.4000   -0.3599 C   0  0  0  0  0  0  0  0  0  0  0  0
    1.6213    0.5033   -0.6272 C   0  0  0  0  0  0  0  0  0  0  0  0
    0.3606    0.3743   -0.0279 C   0  0  0  0  0  0  0  0  0  0  0  0
    0.0869   -0.6787    0.8496 C   0  0  0  0  0  0  0  0  0  0  0  0
   -1.2670   -0.8197    1.5066 C   0  0  0  0  0  0  0  0  0  0  0  0
   -2.4255   -0.9371    0.5846 N   0  0  0  0  0  0  0  0  0  0  0  0
   -2.2676   -1.9312   -0.5333 C   0  0  0  0  0  0  0  0  0  0  0  0
   -1.7380   -3.3533   -0.1880 C   0  0  0  0  0  0  0  0  0  0  0  0
   -2.6874   -3.8988   -1.2690 C   0  0  0  0  0  0  0  0  0  0  0  0
   -3.5565   -2.6537   -1.0221 C   0  0  0  0  0  0  0  0  0  0  0  0
   -3.5070    0.3829    0.5470 S   0  0  0  0  0  0  0  0  0  0  0  0
   -2.7264    1.5949    0.6887 O   0  0  0  0  0  0  0  0  0  0  0  0
   -4.3882    0.1876   -0.5860 O   0  0  0  0  0  0  0  0  0  0  0  0
   -4.4311    0.0806    2.0599 C   0  0  0  0  0  0  0  0  0  0  0  0
   -5.4817    1.1463    2.2292 C   0  0  0  0  0  0  0  0  0  0  0  0
   -6.7654    0.9723    1.6921 C   0  0  0  0  0  0  0  0  0  0  0  0
   -7.7379    1.9610    1.8479 C   0  0  0  0  0  0  0  0  0  0  0  0
   -7.4379    3.1331    2.5387 C   0  0  0  0  0  0  0  0  0  0  0  0
   -6.1640    3.3202    3.0708 C   0  0  0  0  0  0  0  0  0  0  0  0
   -5.1893    2.3333    2.9165 C   0  0  0  0  0  0  0  0  0  0  0  0
    1.1109   -1.5900    1.1245 C   0  0  0  0  0  0  0  0  0  0  0  0
    2.3678   -1.4528    0.5224 C   0  0  0  0  0  0  0  0  0  0  0  0
    4.0894    0.5549   -2.1347 C   0  0  0  0  0  0  0  0  0  0  0  0
    5.4742    0.3394   -2.7842 C   0  0  0  0  0  0  0  0  0  0  0  0
    7.5492    2.1641   -3.6949 H   0  0  0  0  0  0  0  0  0  0  0  0
    6.2582    3.1412   -2.9120 H   0  0  0  0  0  0  0  0  0  0  0  0
    7.9713    3.4753   -2.5871 H   0  0  0  0  0  0  0  0  0  0  0  0
    7.2127   -0.1991    0.0804 H   0  0  0  0  0  0  0  0  0  0  0  0
    6.4922   -1.3882   -1.0115 H   0  0  0  0  0  0  0  0  0  0  0  0
    4.9832    0.8382    0.4915 H   0  0  0  0  0  0  0  0  0  0  0  0
    4.9605   -0.8969    0.8578 H   0  0  0  0  0  0  0  0  0  0  0  0
    1.7670    1.3469   -1.2946 H   0  0  0  0  0  0  0  0  0  0  0  0
   -0.4054    1.1114   -0.2611 H   0  0  0  0  0  0  0  0  0  0  0  0
   -1.2794   -1.7092    2.1497 H   0  0  0  0  0  0  0  0  0  0  0  0
   -1.3933    0.0205    2.1996 H   0  0  0  0  0  0  0  0  0  0  0  0
   -1.7217   -1.4737   -1.3705 H   0  0  0  0  0  0  0  0  0  0  0  0
   -0.6764   -3.5303   -0.3770 H   0  0  0  0  0  0  0  0  0  0  0  0
   -1.9839   -3.6994    0.8229 H   0  0  0  0  0  0  0  0  0  0  0  0
   -2.2427   -3.9363   -2.2700 H   0  0  0  0  0  0  0  0  0  0  0  0
   -3.1578   -4.8603   -1.0500 H   0  0  0  0  0  0  0  0  0  0  0  0
   -4.0306   -2.2356   -1.9139 H   0  0  0  0  0  0  0  0  0  0  0  0
   -4.3180   -2.7965   -0.2460 H   0  0  0  0  0  0  0  0  0  0  0  0
   -4.8871   -0.9117    1.9856 H   0  0  0  0  0  0  0  0  0  0  0  0
   -3.7332    0.0880    2.9023 H   0  0  0  0  0  0  0  0  0  0  0  0
   -7.0151    0.0705    1.1358 H   0  0  0  0  0  0  0  0  0  0  0  0
   -8.7281    1.8198    1.4223 H   0  0  0  0  0  0  0  0  0  0  0  0
   -8.1943    3.9049    2.6542 H   0  0  0  0  0  0  0  0  0  0  0  0
   -5.9264    4.2398    3.5996 H   0  0  0  0  0  0  0  0  0  0  0  0
   -4.1962    2.5059    3.3272 H   0  0  0  0  0  0  0  0  0  0  0  0
    0.9434   -2.4272    1.7980 H   0  0  0  0  0  0  0  0  0  0  0  0
    3.1241   -2.2057    0.7312 H   0  0  0  0  0  0  0  0  0  0  0  0
    3.3216    0.3240   -2.8827 H   0  0  0  0  0  0  0  0  0  0  0  0
    3.9933    1.6082   -1.8415 H   0  0  0  0  0  0  0  0  0  0  0  0
    5.5909    1.0100   -3.6382 H   0  0  0  0  0  0  0  0  0  0  0  0
    5.5589   -0.6889   -3.1557 H   0  0  0  0  0  0  0  0  0  0  0  0
  1  2  1  0
  2  3  2  0
  2  4  1  0
  4  5  1  0
  5  6  1  0
  6  7  1  0
  7  8  1  0
  8  9  1  0
  9 10  2  0
 10 11  1  0
 11 12  1  0
 12 13  1  0
 13 14  1  0
 14 15  1  0
 15 16  1  0
 16 17  1  0
 13 18  1  0
 18 19  2  0
 18 20  2  0
 18 21  1  0
 21 22  1  0
 22 23  2  0
 23 24  1  0
 24 25  2  0
 25 26  1  0
 26 27  2  0
 11 28  2  0
 28 29  1  0
  7 30  1  0
 30 31  1  0
 31  4  1  0
 29  8  2  0
 17 14  1  0
 27 22  1  0
  1 32  1  0
  1 33  1  0
  1 34  1  0
  5 35  1  0
  5 36  1  0
  6 37  1  0
  6 38  1  0
  9 39  1  0
 10 40  1  0
 12 41  1  0
 12 42  1  0
 14 43  1  0
 15 44  1  0
 15 45  1  0
 16 46  1  0
 16 47  1  0
 17 48  1  0
 17 49  1  0
 21 50  1  0
 21 51  1  0
 23 52  1  0
 24 53  1  0
 25 54  1  0
 26 55  1  0
 27 56  1  0
 28 57  1  0
 29 58  1  0
 30 59  1  0
 30 60  1  0
 31 61  1  0
 31 62  1  0
M  END
>  <QED>  (18) 
0.662

>  <MW>  (18) 
441.6

$$$$
CHEMBL3581532
     RDKit          3D

 59 62  0  0  0  0  0  0  0  0999 V2000
    8.0865   -0.2220   -2.9727 C   0  0  0  0  0  0  0  0  0  0  0  0
    7.6771   -0.5309   -1.5551 C   0  0  0  0  0  0  0  0  0  0  0  0
    8.5298   -0.8099   -0.7120 O   0  0  0  0  0  0  0  0  0  0  0  0
    6.3221   -0.4643   -1.2580 N   0  0  0  0  0  0  0  0  0  0  0  0
    5.2683   -0.4840   -2.2817 C   0  0  0  0  0  0  0  0  0  0  0  0
    3.9521    0.1515   -1.7953 C   0  0  0  0  0  0  0  0  0  0  0  0
    3.5281   -0.4458   -0.5119 N   0  0  0  0  0  0  0  0  0  0  0  0
    2.2329   -0.1577   -0.0496 C   0  0  0  0  0  0  0  0  0  0  0  0
    1.4426    0.8870   -0.5521 C   0  0  0  0  0  0  0  0  0  0  0  0
    0.1491    1.1279   -0.0685 C   0  0  0  0  0  0  0  0  0  0  0  0
   -0.3999    0.3165    0.9293 C   0  0  0  0  0  0  0  0  0  0  0  0
   -1.7921    0.5673    1.4503 C   0  0  0  0  0  0  0  0  0  0  0  0
   -2.8291    0.4400    0.3967 N   0  0  0  0  0  0  0  0  0  0  0  0
   -2.9709   -0.9523   -0.1457 C   0  0  0  0  0  0  0  0  0  0  0  0
   -2.5800   -1.1753   -1.6286 C   0  0  0  0  0  0  0  0  0  0  0  0
   -3.6686   -2.2666   -1.6743 C   0  0  0  0  0  0  0  0  0  0  0  0
   -4.3645   -1.5164   -0.5192 C   0  0  0  0  0  0  0  0  0  0  0  0
   -3.8275    1.7759    0.1215 S   0  0  0  0  0  0  0  0  0  0  0  0
   -4.4327    1.6111   -1.1855 O   0  0  0  0  0  0  0  0  0  0  0  0
   -3.1015    2.9906    0.4256 O   0  0  0  0  0  0  0  0  0  0  0  0
   -5.1148    1.5851    1.3174 C   0  0  0  0  0  0  0  0  0  0  0  0
   -6.4075    1.2374    0.9043 C   0  0  0  0  0  0  0  0  0  0  0  0
   -7.4300    1.1145    1.8476 C   0  0  0  0  0  0  0  0  0  0  0  0
   -7.1669    1.3494    3.1971 C   0  0  0  0  0  0  0  0  0  0  0  0
   -5.8823    1.7117    3.6022 C   0  0  0  0  0  0  0  0  0  0  0  0
   -4.8626    1.8338    2.6598 C   0  0  0  0  0  0  0  0  0  0  0  0
   -3.6455    2.1808    3.0946 F   0  0  0  0  0  0  0  0  0  0  0  0
    0.3764   -0.7259    1.4265 C   0  0  0  0  0  0  0  0  0  0  0  0
   -0.1182   -1.5341    2.3756 F   0  0  0  0  0  0  0  0  0  0  0  0
    1.6640   -0.9645    0.9479 C   0  0  0  0  0  0  0  0  0  0  0  0
    4.5719   -0.3125    0.5371 C   0  0  0  0  0  0  0  0  0  0  0  0
    5.8986   -0.9341    0.0663 C   0  0  0  0  0  0  0  0  0  0  0  0
    7.7488    0.7788   -3.2545 H   0  0  0  0  0  0  0  0  0  0  0  0
    7.6825   -0.9737   -3.6557 H   0  0  0  0  0  0  0  0  0  0  0  0
    9.1782   -0.2444   -3.0468 H   0  0  0  0  0  0  0  0  0  0  0  0
    5.1041   -1.5362   -2.5452 H   0  0  0  0  0  0  0  0  0  0  0  0
    5.5976    0.0334   -3.1864 H   0  0  0  0  0  0  0  0  0  0  0  0
    3.1907   -0.0117   -2.5677 H   0  0  0  0  0  0  0  0  0  0  0  0
    4.1024    1.2322   -1.6751 H   0  0  0  0  0  0  0  0  0  0  0  0
    1.8166    1.5548   -1.3227 H   0  0  0  0  0  0  0  0  0  0  0  0
   -0.4289    1.9545   -0.4802 H   0  0  0  0  0  0  0  0  0  0  0  0
   -1.7802    1.5636    1.9010 H   0  0  0  0  0  0  0  0  0  0  0  0
   -2.0423   -0.1202    2.2676 H   0  0  0  0  0  0  0  0  0  0  0  0
   -2.4529   -1.6708    0.5084 H   0  0  0  0  0  0  0  0  0  0  0  0
   -1.5583   -1.5242   -1.8014 H   0  0  0  0  0  0  0  0  0  0  0  0
   -2.7789   -0.3243   -2.2894 H   0  0  0  0  0  0  0  0  0  0  0  0
   -4.2341   -2.3359   -2.6067 H   0  0  0  0  0  0  0  0  0  0  0  0
   -3.3065   -3.2638   -1.3990 H   0  0  0  0  0  0  0  0  0  0  0  0
   -5.1050   -0.7960   -0.8739 H   0  0  0  0  0  0  0  0  0  0  0  0
   -4.8324   -2.1525    0.2372 H   0  0  0  0  0  0  0  0  0  0  0  0
   -6.6300    1.0659   -0.1472 H   0  0  0  0  0  0  0  0  0  0  0  0
   -8.4339    0.8425    1.5282 H   0  0  0  0  0  0  0  0  0  0  0  0
   -7.9639    1.2575    3.9316 H   0  0  0  0  0  0  0  0  0  0  0  0
   -5.6686    1.9048    4.6496 H   0  0  0  0  0  0  0  0  0  0  0  0
    2.2110   -1.8126    1.3485 H   0  0  0  0  0  0  0  0  0  0  0  0
    4.2821   -0.8071    1.4709 H   0  0  0  0  0  0  0  0  0  0  0  0
    4.7256    0.7519    0.7589 H   0  0  0  0  0  0  0  0  0  0  0  0
    5.7947   -2.0242   -0.0042 H   0  0  0  0  0  0  0  0  0  0  0  0
    6.6768   -0.7265    0.8089 H   0  0  0  0  0  0  0  0  0  0  0  0
  1  2  1  0
  2  3  2  0
  2  4  1  0
  4  5  1  0
  5  6  1  0
  6  7  1  0
  7  8  1  0
  8  9  1  0
  9 10  2  0
 10 11  1  0
 11 12  1  0
 12 13  1  0
 13 14  1  0
 14 15  1  0
 15 16  1  0
 16 17  1  0
 13 18  1  0
 18 19  2  0
 18 20  2  0
 18 21  1  0
 21 22  2  0
 22 23  1  0
 23 24  2  0
 24 25  1  0
 25 26  2  0
 26 27  1  0
 11 28  2  0
 28 29  1  0
 28 30  1  0
  7 31  1  0
 31 32  1  0
 32  4  1  0
 30  8  2  0
 17 14  1  0
 26 21  1  0
  1 33  1  0
  1 34  1  0
  1 35  1  0
  5 36  1  0
  5 37  1  0
  6 38  1  0
  6 39  1  0
  9 40  1  0
 10 41  1  0
 12 42  1  0
 12 43  1  0
 14 44  1  0
 15 45  1  0
 15 46  1  0
 16 47  1  0
 16 48  1  0
 17 49  1  0
 17 50  1  0
 22 51  1  0
 23 52  1  0
 24 53  1  0
 25 54  1  0
 30 55  1  0
 31 56  1  0
 31 57  1  0
 32 58  1  0
 32 59  1  0
M  END
>  <QED>  (19) 
0.659

>  <MW>  (19) 
463.6

$$$$
CHEMBL3581534
     RDKit          3D

 59 62  0  0  0  0  0  0  0  0999 V2000
    8.6401    0.1428    0.2176 C   0  0  0  0  0  0  0  0  0  0  0  0
    7.6358   -0.9282   -0.1271 C   0  0  0  0  0  0  0  0  0  0  0  0
    8.0098   -2.0697   -0.3945 O   0  0  0  0  0  0  0  0  0  0  0  0
    6.3027   -0.5587   -0.1321 N   0  0  0  0  0  0  0  0  0  0  0  0
    5.8155    0.7987    0.1317 C   0  0  0  0  0  0  0  0  0  0  0  0
    4.3716    1.0374   -0.3510 C   0  0  0  0  0  0  0  0  0  0  0  0
    3.4487    0.0299    0.1975 N   0  0  0  0  0  0  0  0  0  0  0  0
    2.0828    0.2640    0.2765 C   0  0  0  0  0  0  0  0  0  0  0  0
    1.2438   -0.5489    1.0597 C   0  0  0  0  0  0  0  0  0  0  0  0
   -0.1376   -0.3262    1.1585 C   0  0  0  0  0  0  0  0  0  0  0  0
   -0.7326    0.7320    0.4686 C   0  0  0  0  0  0  0  0  0  0  0  0
   -2.2143    0.9909    0.5430 C   0  0  0  0  0  0  0  0  0  0  0  0
   -2.9973    0.5368   -0.6503 N   0  0  0  0  0  0  0  0  0  0  0  0
   -2.8942   -0.9653   -0.8679 C   0  0  0  0  0  0  0  0  0  0  0  0
   -3.8208   -1.7132   -1.8658 C   0  0  0  0  0  0  0  0  0  0  0  0
   -2.7438   -1.5099   -2.9413 C   0  0  0  0  0  0  0  0  0  0  0  0
   -1.7242   -1.4301   -1.7932 C   0  0  0  0  0  0  0  0  0  0  0  0
   -4.3715    1.5056   -0.9759 S   0  0  0  0  0  0  0  0  0  0  0  0
   -4.9853    1.0711   -2.2114 O   0  0  0  0  0  0  0  0  0  0  0  0
   -4.0212    2.8972   -0.7833 O   0  0  0  0  0  0  0  0  0  0  0  0
   -5.4738    1.0625    0.3533 C   0  0  0  0  0  0  0  0  0  0  0  0
   -6.4213    0.0488    0.1690 C   0  0  0  0  0  0  0  0  0  0  0  0
   -7.2972   -0.2775    1.2066 C   0  0  0  0  0  0  0  0  0  0  0  0
   -7.2336    0.4182    2.4138 C   0  0  0  0  0  0  0  0  0  0  0  0
   -6.3051    1.4429    2.5714 C   0  0  0  0  0  0  0  0  0  0  0  0
   -6.2571    2.1143    3.7289 F   0  0  0  0  0  0  0  0  0  0  0  0
   -5.4277    1.7821    1.5501 C   0  0  0  0  0  0  0  0  0  0  0  0
    0.0892    1.5508   -0.3010 C   0  0  0  0  0  0  0  0  0  0  0  0
   -0.4380    2.5851   -0.9709 F   0  0  0  0  0  0  0  0  0  0  0  0
    1.4644    1.3268   -0.3956 C   0  0  0  0  0  0  0  0  0  0  0  0
    3.9814   -1.3358    0.3851 C   0  0  0  0  0  0  0  0  0  0  0  0
    5.2804   -1.5697   -0.4074 C   0  0  0  0  0  0  0  0  0  0  0  0
    9.6200   -0.3185    0.3742 H   0  0  0  0  0  0  0  0  0  0  0  0
    8.7195    0.8572   -0.6056 H   0  0  0  0  0  0  0  0  0  0  0  0
    8.3592    0.6538    1.1420 H   0  0  0  0  0  0  0  0  0  0  0  0
    5.8711    0.9455    1.2172 H   0  0  0  0  0  0  0  0  0  0  0  0
    6.4846    1.5260   -0.3386 H   0  0  0  0  0  0  0  0  0  0  0  0
    4.0838    2.0464   -0.0326 H   0  0  0  0  0  0  0  0  0  0  0  0
    4.3375    0.9996   -1.4468 H   0  0  0  0  0  0  0  0  0  0  0  0
    1.6613   -1.3708    1.6368 H   0  0  0  0  0  0  0  0  0  0  0  0
   -0.7341   -0.9883    1.7818 H   0  0  0  0  0  0  0  0  0  0  0  0
   -2.6253    0.5011    1.4354 H   0  0  0  0  0  0  0  0  0  0  0  0
   -2.3360    2.0656    0.7167 H   0  0  0  0  0  0  0  0  0  0  0  0
   -2.9024   -1.4707    0.1071 H   0  0  0  0  0  0  0  0  0  0  0  0
   -3.9670   -2.7689   -1.5993 H   0  0  0  0  0  0  0  0  0  0  0  0
   -4.8027   -1.3058   -2.0960 H   0  0  0  0  0  0  0  0  0  0  0  0
   -2.6082   -2.3365   -3.6429 H   0  0  0  0  0  0  0  0  0  0  0  0
   -2.8493   -0.5765   -3.5056 H   0  0  0  0  0  0  0  0  0  0  0  0
   -0.9064   -0.7289   -1.9712 H   0  0  0  0  0  0  0  0  0  0  0  0
   -1.2992   -2.3997   -1.5075 H   0  0  0  0  0  0  0  0  0  0  0  0
   -6.4960   -0.4793   -0.7786 H   0  0  0  0  0  0  0  0  0  0  0  0
   -8.0355   -1.0646    1.0697 H   0  0  0  0  0  0  0  0  0  0  0  0
   -7.9110    0.1787    3.2281 H   0  0  0  0  0  0  0  0  0  0  0  0
   -4.7316    2.6024    1.6968 H   0  0  0  0  0  0  0  0  0  0  0  0
    2.0270    2.0007   -1.0325 H   0  0  0  0  0  0  0  0  0  0  0  0
    3.2567   -2.0907    0.0566 H   0  0  0  0  0  0  0  0  0  0  0  0
    4.1753   -1.4891    1.4536 H   0  0  0  0  0  0  0  0  0  0  0  0
    5.0741   -1.5208   -1.4838 H   0  0  0  0  0  0  0  0  0  0  0  0
    5.6651   -2.5725   -0.1934 H   0  0  0  0  0  0  0  0  0  0  0  0
  1  2  1  0
  2  3  2  0
  2  4  1  0
  4  5  1  0
  5  6  1  0
  6  7  1  0
  7  8  1  0
  8  9  1  0
  9 10  2  0
 10 11  1  0
 11 12  1  0
 12 13  1  0
 13 14  1  0
 14 15  1  0
 15 16  1  0
 16 17  1  0
 13 18  1  0
 18 19  2  0
 18 20  2  0
 18 21  1  0
 21 22  2  0
 22 23  1  0
 23 24  2  0
 24 25  1  0
 25 26  1  0
 25 27  2  0
 11 28  2  0
 28 29  1  0
 28 30  1  0
  7 31  1  0
 31 32  1  0
 32  4  1  0
 30  8  2  0
 17 14  1  0
 27 21  1  0
  1 33  1  0
  1 34  1  0
  1 35  1  0
  5 36  1  0
  5 37  1  0
  6 38  1  0
  6 39  1  0
  9 40  1  0
 10 41  1  0
 12 42  1  0
 12 43  1  0
 14 44  1  0
 15 45  1  0
 15 46  1  0
 16 47  1  0
 16 48  1  0
 17 49  1  0
 17 50  1  0
 22 51  1  0
 23 52  1  0
 24 53  1  0
 27 54  1  0
 30 55  1  0
 31 56  1  0
 31 57  1  0
 32 58  1  0
 32 59  1  0
M  END
>  <QED>  (20) 
0.659

>  <MW>  (20) 
463.6

$$$$
CHEMBL3317839
     RDKit          3D

 61 63  0  0  0  0  0  0  0  0999 V2000
    1.7494   -4.2617    0.1888 C   0  0  0  0  0  0  0  0  0  0  0  0
    1.7781   -2.9542   -0.5862 C   0  0  0  0  0  0  0  0  0  0  0  0
    2.8599   -2.0163   -0.0558 C   0  0  0  0  0  0  0  0  0  0  0  0
    2.8841   -0.7705   -0.8513 N   0  0  0  0  0  0  0  0  0  0  0  0
    2.3765    0.4376   -0.1653 C   0  0  0  0  0  0  0  0  0  0  0  0
    0.8690    0.4512   -0.0627 C   0  0  0  0  0  0  0  0  0  0  0  0
    0.2253    0.4452    1.1754 C   0  0  0  0  0  0  0  0  0  0  0  0
   -1.1747    0.4558    1.2478 C   0  0  0  0  0  0  0  0  0  0  0  0
   -1.9847    0.4709    0.0999 C   0  0  0  0  0  0  0  0  0  0  0  0
   -3.3702    0.4879    0.1917 N   0  0  0  0  0  0  0  0  0  0  0  0
   -4.0422   -0.1160    1.3595 C   0  0  0  0  0  0  0  0  0  0  0  0
   -5.4368   -0.6663    1.0090 C   0  0  0  0  0  0  0  0  0  0  0  0
   -6.2922    0.3270    0.3567 N   0  0  0  0  0  0  0  0  0  0  0  0
   -7.6526    0.3176    0.6056 C   0  0  0  0  0  0  0  0  0  0  0  0
   -8.4739    1.3999   -0.0489 C   0  0  0  0  0  0  0  0  0  0  0  0
   -8.1925   -0.5279    1.3187 O   0  0  0  0  0  0  0  0  0  0  0  0
   -5.6147    1.2837   -0.5246 C   0  0  0  0  0  0  0  0  0  0  0  0
   -4.2116    0.8247   -0.9664 C   0  0  0  0  0  0  0  0  0  0  0  0
   -1.3142    0.4872   -1.1326 C   0  0  0  0  0  0  0  0  0  0  0  0
    0.0844    0.4764   -1.2182 C   0  0  0  0  0  0  0  0  0  0  0  0
    4.0592   -0.5931   -2.0404 S   0  0  0  0  0  0  0  0  0  0  0  0
    4.1186   -1.8506   -2.7622 O   0  0  0  0  0  0  0  0  0  0  0  0
    3.7943    0.6339   -2.7647 O   0  0  0  0  0  0  0  0  0  0  0  0
    5.6308   -0.4376   -1.1688 C   0  0  0  0  0  0  0  0  0  0  0  0
    5.6205    0.6424   -0.1211 C   0  0  0  0  0  0  0  0  0  0  0  0
    5.5912    1.9979   -0.4797 C   0  0  0  0  0  0  0  0  0  0  0  0
    5.5892    2.9911    0.5007 C   0  0  0  0  0  0  0  0  0  0  0  0
    5.6319    2.6427    1.8486 C   0  0  0  0  0  0  0  0  0  0  0  0
    5.6821    1.3008    2.2186 C   0  0  0  0  0  0  0  0  0  0  0  0
    5.6810    0.3052    1.2403 C   0  0  0  0  0  0  0  0  0  0  0  0
    1.5422   -4.0845    1.2490 H   0  0  0  0  0  0  0  0  0  0  0  0
    0.9674   -4.9185   -0.2049 H   0  0  0  0  0  0  0  0  0  0  0  0
    2.7065   -4.7868    0.1079 H   0  0  0  0  0  0  0  0  0  0  0  0
    0.7941   -2.4781   -0.5168 H   0  0  0  0  0  0  0  0  0  0  0  0
    1.9487   -3.1687   -1.6473 H   0  0  0  0  0  0  0  0  0  0  0  0
    3.8359   -2.5126   -0.0946 H   0  0  0  0  0  0  0  0  0  0  0  0
    2.6812   -1.7942    1.0028 H   0  0  0  0  0  0  0  0  0  0  0  0
    2.6677    1.3545   -0.6879 H   0  0  0  0  0  0  0  0  0  0  0  0
    2.8166    0.5048    0.8355 H   0  0  0  0  0  0  0  0  0  0  0  0
    0.7997    0.4380    2.0984 H   0  0  0  0  0  0  0  0  0  0  0  0
   -1.6252    0.4778    2.2365 H   0  0  0  0  0  0  0  0  0  0  0  0
   -3.4547   -0.9473    1.7679 H   0  0  0  0  0  0  0  0  0  0  0  0
   -4.1397    0.6496    2.1387 H   0  0  0  0  0  0  0  0  0  0  0  0
   -5.9178   -1.0506    1.9148 H   0  0  0  0  0  0  0  0  0  0  0  0
   -5.3410   -1.5048    0.3081 H   0  0  0  0  0  0  0  0  0  0  0  0
   -8.5502    1.2112   -1.1227 H   0  0  0  0  0  0  0  0  0  0  0  0
   -9.4816    1.3960    0.3779 H   0  0  0  0  0  0  0  0  0  0  0  0
   -8.0359    2.3839    0.1365 H   0  0  0  0  0  0  0  0  0  0  0  0
   -6.2343    1.4709   -1.4071 H   0  0  0  0  0  0  0  0  0  0  0  0
   -5.5367    2.2236    0.0353 H   0  0  0  0  0  0  0  0  0  0  0  0
   -4.2991   -0.0535   -1.6179 H   0  0  0  0  0  0  0  0  0  0  0  0
   -3.7691    1.6419   -1.5482 H   0  0  0  0  0  0  0  0  0  0  0  0
   -1.8659    0.4831   -2.0679 H   0  0  0  0  0  0  0  0  0  0  0  0
    0.5597    0.4751   -2.1982 H   0  0  0  0  0  0  0  0  0  0  0  0
    6.3960   -0.2255   -1.9234 H   0  0  0  0  0  0  0  0  0  0  0  0
    5.8606   -1.4163   -0.7353 H   0  0  0  0  0  0  0  0  0  0  0  0
    5.5609    2.2944   -1.5278 H   0  0  0  0  0  0  0  0  0  0  0  0
    5.5577    4.0386    0.2102 H   0  0  0  0  0  0  0  0  0  0  0  0
    5.6346    3.4186    2.6101 H   0  0  0  0  0  0  0  0  0  0  0  0
    5.7278    1.0305    3.2708 H   0  0  0  0  0  0  0  0  0  0  0  0
    5.7288   -0.7361    1.5526 H   0  0  0  0  0  0  0  0  0  0  0  0
  1  2  1  0
  2  3  1  0
  3  4  1  0
  4  5  1  0
  5  6  1  0
  6  7  1  0
  7  8  2  0
  8  9  1  0
  9 10  1  0
 10 11  1  0
 11 12  1  0
 12 13  1  0
 13 14  1  0
 14 15  1  0
 14 16  2  0
 13 17  1  0
 17 18  1  0
  9 19  2  0
 19 20  1  0
  4 21  1  0
 21 22  2  0
 21 23  2  0
 21 24  1  0
 24 25  1  0
 25 26  2  0
 26 27  1  0
 27 28  2  0
 28 29  1  0
 29 30  2  0
 20  6  2  0
 30 25  1  0
 18 10  1  0
  1 31  1  0
  1 32  1  0
  1 33  1  0
  2 34  1  0
  2 35  1  0
  3 36  1  0
  3 37  1  0
  5 38  1  0
  5 39  1  0
  7 40  1  0
  8 41  1  0
 11 42  1  0
 11 43  1  0
 12 44  1  0
 12 45  1  0
 15 46  1  0
 15 47  1  0
 15 48  1  0
 17 49  1  0
 17 50  1  0
 18 51  1  0
 18 52  1  0
 19 53  1  0
 20 54  1  0
 24 55  1  0
 24 56  1  0
 26 57  1  0
 27 58  1  0
 28 59  1  0
 29 60  1  0
 30 61  1  0
M  END
>  <QED>  (21) 
0.647

>  <MW>  (21) 
429.6

$$$$
CHEMBL3317831
     RDKit          3D

 64 66  0  0  0  0  0  0  0  0999 V2000
    2.5978   -1.9474   -2.1867 C   0  0  0  0  0  0  0  0  0  0  0  0
    2.6811   -1.9233   -0.6580 C   0  0  0  0  0  0  0  0  0  0  0  0
    3.9964   -2.5540   -0.2023 C   0  0  0  0  0  0  0  0  0  0  0  0
    2.5097   -0.4783   -0.1510 C   0  0  0  0  0  0  0  0  0  0  0  0
    2.4863   -0.3841    1.3419 N   0  0  0  0  0  0  0  0  0  0  0  0
    1.3439   -1.0926    1.9982 C   0  0  0  0  0  0  0  0  0  0  0  0
   -0.0431   -0.7618    1.4953 C   0  0  0  0  0  0  0  0  0  0  0  0
   -0.6345    0.4756    1.7567 C   0  0  0  0  0  0  0  0  0  0  0  0
   -1.9201    0.7738    1.2813 C   0  0  0  0  0  0  0  0  0  0  0  0
   -2.6700   -0.1432    0.5311 C   0  0  0  0  0  0  0  0  0  0  0  0
   -3.9465    0.1447    0.0604 N   0  0  0  0  0  0  0  0  0  0  0  0
   -4.4192   -0.4865   -1.1792 C   0  0  0  0  0  0  0  0  0  0  0  0
   -5.3715    0.4433   -1.9281 C   0  0  0  0  0  0  0  0  0  0  0  0
   -6.5852    0.8179   -1.0690 C   0  0  0  0  0  0  0  0  0  0  0  0
   -7.6884   -0.2258   -1.1963 C   0  0  0  0  0  0  0  0  0  0  0  0
   -8.8691    0.1065   -0.5981 N   0  0  0  0  0  0  0  0  0  0  0  0
   -7.5753   -1.2884   -1.7958 O   0  0  0  0  0  0  0  0  0  0  0  0
   -6.2098    1.0135    0.4076 C   0  0  0  0  0  0  0  0  0  0  0  0
   -4.7167    1.2605    0.6073 C   0  0  0  0  0  0  0  0  0  0  0  0
   -2.0665   -1.3878    0.2940 C   0  0  0  0  0  0  0  0  0  0  0  0
   -0.7824   -1.6965    0.7646 C   0  0  0  0  0  0  0  0  0  0  0  0
    2.8574    1.1480    1.9954 S   0  0  0  0  0  0  0  0  0  0  0  0
    2.4269    1.1467    3.3824 O   0  0  0  0  0  0  0  0  0  0  0  0
    2.3545    2.1662    1.0971 O   0  0  0  0  0  0  0  0  0  0  0  0
    4.6560    1.1873    2.0651 C   0  0  0  0  0  0  0  0  0  0  0  0
    5.3349    1.3122    0.7282 C   0  0  0  0  0  0  0  0  0  0  0  0
    6.2089    0.3045    0.2930 C   0  0  0  0  0  0  0  0  0  0  0  0
    6.8769    0.4164   -0.9281 C   0  0  0  0  0  0  0  0  0  0  0  0
    6.6922    1.5440   -1.7234 C   0  0  0  0  0  0  0  0  0  0  0  0
    5.8486    2.5646   -1.2930 C   0  0  0  0  0  0  0  0  0  0  0  0
    5.1826    2.4549   -0.0707 C   0  0  0  0  0  0  0  0  0  0  0  0
    3.3944   -1.3464   -2.6385 H   0  0  0  0  0  0  0  0  0  0  0  0
    1.6365   -1.5501   -2.5293 H   0  0  0  0  0  0  0  0  0  0  0  0
    2.6895   -2.9710   -2.5652 H   0  0  0  0  0  0  0  0  0  0  0  0
    1.8667   -2.5497   -0.2821 H   0  0  0  0  0  0  0  0  0  0  0  0
    4.0449   -3.6033   -0.5134 H   0  0  0  0  0  0  0  0  0  0  0  0
    4.0994   -2.5290    0.8868 H   0  0  0  0  0  0  0  0  0  0  0  0
    4.8556   -2.0420   -0.6435 H   0  0  0  0  0  0  0  0  0  0  0  0
    3.3299    0.1217   -0.5513 H   0  0  0  0  0  0  0  0  0  0  0  0
    1.5875   -0.0465   -0.5571 H   0  0  0  0  0  0  0  0  0  0  0  0
    1.3679   -0.9527    3.0850 H   0  0  0  0  0  0  0  0  0  0  0  0
    1.5245   -2.1702    1.8922 H   0  0  0  0  0  0  0  0  0  0  0  0
   -0.1067    1.2330    2.3321 H   0  0  0  0  0  0  0  0  0  0  0  0
   -2.3090    1.7647    1.4975 H   0  0  0  0  0  0  0  0  0  0  0  0
   -3.5819   -0.7062   -1.8533 H   0  0  0  0  0  0  0  0  0  0  0  0
   -4.9145   -1.4345   -0.9394 H   0  0  0  0  0  0  0  0  0  0  0  0
   -5.6775   -0.0197   -2.8735 H   0  0  0  0  0  0  0  0  0  0  0  0
   -4.8320    1.3610   -2.1985 H   0  0  0  0  0  0  0  0  0  0  0  0
   -6.9955    1.7553   -1.4684 H   0  0  0  0  0  0  0  0  0  0  0  0
   -8.9798    0.9141   -0.0022 H   0  0  0  0  0  0  0  0  0  0  0  0
   -9.6110   -0.5813   -0.6238 H   0  0  0  0  0  0  0  0  0  0  0  0
   -6.4994    0.1325    0.9965 H   0  0  0  0  0  0  0  0  0  0  0  0
   -6.7775    1.8564    0.8205 H   0  0  0  0  0  0  0  0  0  0  0  0
   -4.5471    1.3644    1.6860 H   0  0  0  0  0  0  0  0  0  0  0  0
   -4.4158    2.1998    0.1276 H   0  0  0  0  0  0  0  0  0  0  0  0
   -2.6045   -2.1617   -0.2475 H   0  0  0  0  0  0  0  0  0  0  0  0
   -0.3771   -2.6834    0.5553 H   0  0  0  0  0  0  0  0  0  0  0  0
    4.9692    0.2866    2.6045 H   0  0  0  0  0  0  0  0  0  0  0  0
    4.9269    2.0480    2.6874 H   0  0  0  0  0  0  0  0  0  0  0  0
    6.3768   -0.5821    0.9016 H   0  0  0  0  0  0  0  0  0  0  0  0
    7.5444   -0.3761   -1.2569 H   0  0  0  0  0  0  0  0  0  0  0  0
    7.2115    1.6322   -2.6741 H   0  0  0  0  0  0  0  0  0  0  0  0
    5.7095    3.4512   -1.9068 H   0  0  0  0  0  0  0  0  0  0  0  0
    4.5379    3.2737    0.2461 H   0  0  0  0  0  0  0  0  0  0  0  0
  1  2  1  0
  2  3  1  0
  2  4  1  0
  4  5  1  0
  5  6  1  0
  6  7  1  0
  7  8  1  0
  8  9  2  0
  9 10  1  0
 10 11  1  0
 11 12  1  0
 12 13  1  0
 13 14  1  0
 14 15  1  0
 15 16  1  0
 15 17  2  0
 14 18  1  0
 18 19  1  0
 10 20  2  0
 20 21  1  0
  5 22  1  0
 22 23  2  0
 22 24  2  0
 22 25  1  0
 25 26  1  0
 26 27  2  0
 27 28  1  0
 28 29  2  0
 29 30  1  0
 30 31  2  0
 21  7  2  0
 31 26  1  0
 19 11  1  0
  1 32  1  0
  1 33  1  0
  1 34  1  0
  2 35  1  0
  3 36  1  0
  3 37  1  0
  3 38  1  0
  4 39  1  0
  4 40  1  0
  6 41  1  0
  6 42  1  0
  8 43  1  0
  9 44  1  0
 12 45  1  0
 12 46  1  0
 13 47  1  0
 13 48  1  0
 14 49  1  0
 16 50  1  0
 16 51  1  0
 18 52  1  0
 18 53  1  0
 19 54  1  0
 19 55  1  0
 20 56  1  0
 21 57  1  0
 25 58  1  0
 25 59  1  0
 27 60  1  0
 28 61  1  0
 29 62  1  0
 30 63  1  0
 31 64  1  0
M  END
>  <QED>  (22) 
0.644

>  <MW>  (22) 
443.6

$$$$
CHEMBL3581547
     RDKit          3D

 65 68  0  0  0  0  0  0  0  0999 V2000
    8.8625    0.6256    1.7345 C   0  0  0  0  0  0  0  0  0  0  0  0
    8.0493    1.4216    0.7449 C   0  0  0  0  0  0  0  0  0  0  0  0
    8.6041    2.1846   -0.0455 O   0  0  0  0  0  0  0  0  0  0  0  0
    6.6768    1.2540    0.7824 N   0  0  0  0  0  0  0  0  0  0  0  0
    5.8444    1.9541   -0.1981 C   0  0  0  0  0  0  0  0  0  0  0  0
    4.5871    1.1581   -0.5931 C   0  0  0  0  0  0  0  0  0  0  0  0
    3.7918    0.7546    0.5844 N   0  0  0  0  0  0  0  0  0  0  0  0
    2.4225    0.5623    0.4782 C   0  0  0  0  0  0  0  0  0  0  0  0
    1.8172    0.2306   -0.7455 C   0  0  0  0  0  0  0  0  0  0  0  0
    0.4344    0.0243   -0.8687 C   0  0  0  0  0  0  0  0  0  0  0  0
   -0.4022    0.1270    0.2430 C   0  0  0  0  0  0  0  0  0  0  0  0
   -1.8953   -0.0468    0.1517 C   0  0  0  0  0  0  0  0  0  0  0  0
   -2.3768   -1.2098   -0.6229 N   0  0  0  0  0  0  0  0  0  0  0  0
   -2.1292   -2.5994   -0.1019 C   0  0  0  0  0  0  0  0  0  0  0  0
   -0.9456   -3.3809   -0.7126 C   0  0  0  0  0  0  0  0  0  0  0  0
   -0.2293   -3.3315    0.6432 C   0  0  0  0  0  0  0  0  0  0  0  0
   -1.5419   -2.8773    1.2962 C   0  0  0  0  0  0  0  0  0  0  0  0
   -3.1507   -0.8964   -2.1028 S   0  0  0  0  0  0  0  0  0  0  0  0
   -2.2523   -0.0740   -2.8883 O   0  0  0  0  0  0  0  0  0  0  0  0
   -3.6573   -2.1419   -2.6378 O   0  0  0  0  0  0  0  0  0  0  0  0
   -4.5577    0.1138   -1.6450 C   0  0  0  0  0  0  0  0  0  0  0  0
   -4.6080    1.4159   -2.1696 C   0  0  0  0  0  0  0  0  0  0  0  0
   -5.6628    2.2691   -1.8472 C   0  0  0  0  0  0  0  0  0  0  0  0
   -6.6768    1.8390   -0.9905 C   0  0  0  0  0  0  0  0  0  0  0  0
   -7.8306    2.7415   -0.6645 C   0  0  0  0  0  0  0  0  0  0  0  0
   -6.6361    0.5310   -0.4874 C   0  0  0  0  0  0  0  0  0  0  0  0
   -5.5867   -0.3527   -0.8063 C   0  0  0  0  0  0  0  0  0  0  0  0
   -5.6178   -1.7277   -0.2037 C   0  0  0  0  0  0  0  0  0  0  0  0
    0.1871    0.4742    1.4570 C   0  0  0  0  0  0  0  0  0  0  0  0
   -0.5769    0.6198    2.5501 F   0  0  0  0  0  0  0  0  0  0  0  0
    1.5641    0.6780    1.5787 C   0  0  0  0  0  0  0  0  0  0  0  0
    4.4742    0.7562    1.8879 C   0  0  0  0  0  0  0  0  0  0  0  0
    5.9677    0.4047    1.7441 C   0  0  0  0  0  0  0  0  0  0  0  0
    8.7315    1.0361    2.7389 H   0  0  0  0  0  0  0  0  0  0  0  0
    8.5762   -0.4290    1.7117 H   0  0  0  0  0  0  0  0  0  0  0  0
    9.9215    0.6908    1.4664 H   0  0  0  0  0  0  0  0  0  0  0  0
    6.4275    2.1889   -1.0950 H   0  0  0  0  0  0  0  0  0  0  0  0
    5.5530    2.9061    0.2626 H   0  0  0  0  0  0  0  0  0  0  0  0
    4.8849    0.2552   -1.1399 H   0  0  0  0  0  0  0  0  0  0  0  0
    3.9977    1.7902   -1.2681 H   0  0  0  0  0  0  0  0  0  0  0  0
    2.4187    0.1018   -1.6424 H   0  0  0  0  0  0  0  0  0  0  0  0
    0.0315   -0.2272   -1.8471 H   0  0  0  0  0  0  0  0  0  0  0  0
   -2.3441   -0.1131    1.1504 H   0  0  0  0  0  0  0  0  0  0  0  0
   -2.2901    0.8870   -0.2654 H   0  0  0  0  0  0  0  0  0  0  0  0
   -3.0623   -3.1671   -0.2223 H   0  0  0  0  0  0  0  0  0  0  0  0
   -0.4138   -2.8900   -1.5324 H   0  0  0  0  0  0  0  0  0  0  0  0
   -1.2127   -4.3949   -1.0319 H   0  0  0  0  0  0  0  0  0  0  0  0
    0.1566   -4.2913    0.9989 H   0  0  0  0  0  0  0  0  0  0  0  0
    0.5777   -2.5955    0.6953 H   0  0  0  0  0  0  0  0  0  0  0  0
   -2.0613   -3.6879    1.8227 H   0  0  0  0  0  0  0  0  0  0  0  0
   -1.4509   -2.0419    1.9925 H   0  0  0  0  0  0  0  0  0  0  0  0
   -3.8286    1.7793   -2.8372 H   0  0  0  0  0  0  0  0  0  0  0  0
   -5.6860    3.2713   -2.2704 H   0  0  0  0  0  0  0  0  0  0  0  0
   -8.2126    2.5380    0.3414 H   0  0  0  0  0  0  0  0  0  0  0  0
   -8.6381    2.5921   -1.3878 H   0  0  0  0  0  0  0  0  0  0  0  0
   -7.5242    3.7925   -0.6885 H   0  0  0  0  0  0  0  0  0  0  0  0
   -7.4427    0.1942    0.1637 H   0  0  0  0  0  0  0  0  0  0  0  0
   -6.5931   -1.9405    0.2487 H   0  0  0  0  0  0  0  0  0  0  0  0
   -4.8699   -1.8093    0.5891 H   0  0  0  0  0  0  0  0  0  0  0  0
   -5.4585   -2.5012   -0.9579 H   0  0  0  0  0  0  0  0  0  0  0  0
    1.9359    0.9560    2.5588 H   0  0  0  0  0  0  0  0  0  0  0  0
    4.3708    1.7475    2.3459 H   0  0  0  0  0  0  0  0  0  0  0  0
    4.0292    0.0175    2.5651 H   0  0  0  0  0  0  0  0  0  0  0  0
    6.4545    0.4697    2.7220 H   0  0  0  0  0  0  0  0  0  0  0  0
    6.0721   -0.6268    1.3863 H   0  0  0  0  0  0  0  0  0  0  0  0
  1  2  1  0
  2  3  2  0
  2  4  1  0
  4  5  1  0
  5  6  1  0
  6  7  1  0
  7  8  1  0
  8  9  1  0
  9 10  2  0
 10 11  1  0
 11 12  1  0
 12 13  1  0
 13 14  1  0
 14 15  1  0
 15 16  1  0
 16 17  1  0
 13 18  1  0
 18 19  2  0
 18 20  2  0
 18 21  1  0
 21 22  1  0
 22 23  2  0
 23 24  1  0
 24 25  1  0
 24 26  2  0
 26 27  1  0
 27 28  1  0
 11 29  2  0
 29 30  1  0
 29 31  1  0
  7 32  1  0
 32 33  1  0
 33  4  1  0
 31  8  2  0
 17 14  1  0
 27 21  2  0
  1 34  1  0
  1 35  1  0
  1 36  1  0
  5 37  1  0
  5 38  1  0
  6 39  1  0
  6 40  1  0
  9 41  1  0
 10 42  1  0
 12 43  1  0
 12 44  1  0
 14 45  1  0
 15 46  1  0
 15 47  1  0
 16 48  1  0
 16 49  1  0
 17 50  1  0
 17 51  1  0
 22 52  1  0
 23 53  1  0
 25 54  1  0
 25 55  1  0
 25 56  1  0
 26 57  1  0
 28 58  1  0
 28 59  1  0
 28 60  1  0
 31 61  1  0
 32 62  1  0
 32 63  1  0
 33 64  1  0
 33 65  1  0
M  END
>  <QED>  (23) 
0.639

>  <MW>  (23) 
473.6

$$$$
CHEMBL3581530
     RDKit          3D

 62 65  0  0  0  0  0  0  0  0999 V2000
    7.8158    1.8210    0.9635 C   0  0  0  0  0  0  0  0  0  0  0  0
    7.3668    0.3936    0.7766 C   0  0  0  0  0  0  0  0  0  0  0  0
    8.1802   -0.4815    0.4814 O   0  0  0  0  0  0  0  0  0  0  0  0
    6.0210    0.1304    0.9598 N   0  0  0  0  0  0  0  0  0  0  0  0
    5.5209   -1.2267    0.7328 C   0  0  0  0  0  0  0  0  0  0  0  0
    4.0869   -1.2488    0.1731 C   0  0  0  0  0  0  0  0  0  0  0  0
    3.1493   -0.4710    1.0099 N   0  0  0  0  0  0  0  0  0  0  0  0
    1.8047   -0.8079    1.0579 C   0  0  0  0  0  0  0  0  0  0  0  0
    0.9921   -0.4898    2.1592 C   0  0  0  0  0  0  0  0  0  0  0  0
   -0.3709   -0.8183    2.2033 C   0  0  0  0  0  0  0  0  0  0  0  0
   -0.9753   -1.4755    1.1307 C   0  0  0  0  0  0  0  0  0  0  0  0
   -2.4382   -1.8173    1.1447 C   0  0  0  0  0  0  0  0  0  0  0  0
   -3.2873   -0.8692    0.3705 N   0  0  0  0  0  0  0  0  0  0  0  0
   -4.0240   -1.5573   -0.7479 C   0  0  0  0  0  0  0  0  0  0  0  0
   -4.7413   -0.7551   -1.8598 C   0  0  0  0  0  0  0  0  0  0  0  0
   -5.8067   -1.8715   -1.8765 C   0  0  0  0  0  0  0  0  0  0  0  0
   -5.4039   -2.1801   -0.4205 C   0  0  0  0  0  0  0  0  0  0  0  0
   -3.7498    0.5538    1.1752 S   0  0  0  0  0  0  0  0  0  0  0  0
   -3.5239    0.3579    2.5960 O   0  0  0  0  0  0  0  0  0  0  0  0
   -5.0671    0.9514    0.7231 O   0  0  0  0  0  0  0  0  0  0  0  0
   -2.5505    1.7733    0.6143 C   0  0  0  0  0  0  0  0  0  0  0  0
   -2.5850    1.9643   -0.8784 C   0  0  0  0  0  0  0  0  0  0  0  0
   -3.5770    2.7548   -1.4773 C   0  0  0  0  0  0  0  0  0  0  0  0
   -3.5981    2.9411   -2.8604 C   0  0  0  0  0  0  0  0  0  0  0  0
   -2.6252    2.3460   -3.6600 C   0  0  0  0  0  0  0  0  0  0  0  0
   -1.6293    1.5658   -3.0772 C   0  0  0  0  0  0  0  0  0  0  0  0
   -1.6070    1.3785   -1.6943 C   0  0  0  0  0  0  0  0  0  0  0  0
   -0.1803   -1.8010    0.0364 C   0  0  0  0  0  0  0  0  0  0  0  0
   -0.7194   -2.4332   -1.0162 F   0  0  0  0  0  0  0  0  0  0  0  0
    1.1768   -1.4757   -0.0036 C   0  0  0  0  0  0  0  0  0  0  0  0
    3.7361    0.5085    1.9388 C   0  0  0  0  0  0  0  0  0  0  0  0
    5.0261    1.1274    1.3660 C   0  0  0  0  0  0  0  0  0  0  0  0
    8.8419    1.9272    0.5982 H   0  0  0  0  0  0  0  0  0  0  0  0
    7.7953    2.0814    2.0248 H   0  0  0  0  0  0  0  0  0  0  0  0
    7.1841    2.5039    0.3897 H   0  0  0  0  0  0  0  0  0  0  0  0
    5.5500   -1.7371    1.7034 H   0  0  0  0  0  0  0  0  0  0  0  0
    6.1876   -1.7717    0.0559 H   0  0  0  0  0  0  0  0  0  0  0  0
    3.7767   -2.2986    0.1067 H   0  0  0  0  0  0  0  0  0  0  0  0
    4.0845   -0.8255   -0.8386 H   0  0  0  0  0  0  0  0  0  0  0  0
    1.4099    0.0070    3.0312 H   0  0  0  0  0  0  0  0  0  0  0  0
   -0.9517   -0.5523    3.0857 H   0  0  0  0  0  0  0  0  0  0  0  0
   -2.8048   -1.9081    2.1741 H   0  0  0  0  0  0  0  0  0  0  0  0
   -2.5513   -2.8379    0.7548 H   0  0  0  0  0  0  0  0  0  0  0  0
   -3.3556   -2.2941   -1.2211 H   0  0  0  0  0  0  0  0  0  0  0  0
   -5.1553    0.2156   -1.5814 H   0  0  0  0  0  0  0  0  0  0  0  0
   -4.1801   -0.6386   -2.7912 H   0  0  0  0  0  0  0  0  0  0  0  0
   -6.8382   -1.5432   -2.0253 H   0  0  0  0  0  0  0  0  0  0  0  0
   -5.5839   -2.6839   -2.5777 H   0  0  0  0  0  0  0  0  0  0  0  0
   -5.3921   -3.2395   -0.1509 H   0  0  0  0  0  0  0  0  0  0  0  0
   -5.9909   -1.6327    0.3252 H   0  0  0  0  0  0  0  0  0  0  0  0
   -1.5602    1.4688    0.9606 H   0  0  0  0  0  0  0  0  0  0  0  0
   -2.7939    2.7136    1.1216 H   0  0  0  0  0  0  0  0  0  0  0  0
   -4.3526    3.2207   -0.8713 H   0  0  0  0  0  0  0  0  0  0  0  0
   -4.3784    3.5475   -3.3133 H   0  0  0  0  0  0  0  0  0  0  0  0
   -2.6439    2.4898   -4.7370 H   0  0  0  0  0  0  0  0  0  0  0  0
   -0.8685    1.1019   -3.6996 H   0  0  0  0  0  0  0  0  0  0  0  0
   -0.8164    0.7715   -1.2608 H   0  0  0  0  0  0  0  0  0  0  0  0
    1.7228   -1.7389   -0.9038 H   0  0  0  0  0  0  0  0  0  0  0  0
    3.0383    1.3317    2.1328 H   0  0  0  0  0  0  0  0  0  0  0  0
    3.9563    0.0128    2.8921 H   0  0  0  0  0  0  0  0  0  0  0  0
    5.4655    1.8061    2.1035 H   0  0  0  0  0  0  0  0  0  0  0  0
    4.7885    1.7145    0.4706 H   0  0  0  0  0  0  0  0  0  0  0  0
  1  2  1  0
  2  3  2  0
  2  4  1  0
  4  5  1  0
  5  6  1  0
  6  7  1  0
  7  8  1  0
  8  9  1  0
  9 10  2  0
 10 11  1  0
 11 12  1  0
 12 13  1  0
 13 14  1  0
 14 15  1  0
 15 16  1  0
 16 17  1  0
 13 18  1  0
 18 19  2  0
 18 20  2  0
 18 21  1  0
 21 22  1  0
 22 23  2  0
 23 24  1  0
 24 25  2  0
 25 26  1  0
 26 27  2  0
 11 28  2  0
 28 29  1  0
 28 30  1  0
  7 31  1  0
 31 32  1  0
 32  4  1  0
 30  8  2  0
 17 14  1  0
 27 22  1  0
  1 33  1  0
  1 34  1  0
  1 35  1  0
  5 36  1  0
  5 37  1  0
  6 38  1  0
  6 39  1  0
  9 40  1  0
 10 41  1  0
 12 42  1  0
 12 43  1  0
 14 44  1  0
 15 45  1  0
 15 46  1  0
 16 47  1  0
 16 48  1  0
 17 49  1  0
 17 50  1  0
 21 51  1  0
 21 52  1  0
 23 53  1  0
 24 54  1  0
 25 55  1  0
 26 56  1  0
 27 57  1  0
 30 58  1  0
 31 59  1  0
 31 60  1  0
 32 61  1  0
 32 62  1  0
M  END
>  <QED>  (24) 
0.637

>  <MW>  (24) 
459.6

$$$$
CHEMBL3581545
     RDKit          3D

 59 62  0  0  0  0  0  0  0  0999 V2000
    8.5341    1.1064    0.2932 C   0  0  0  0  0  0  0  0  0  0  0  0
    7.7733   -0.1671    0.5619 C   0  0  0  0  0  0  0  0  0  0  0  0
    8.3803   -1.2149    0.7844 O   0  0  0  0  0  0  0  0  0  0  0  0
    6.3868   -0.0971    0.5244 N   0  0  0  0  0  0  0  0  0  0  0  0
    5.6402   -1.2839    0.9578 C   0  0  0  0  0  0  0  0  0  0  0  0
    4.2252   -1.3651    0.3583 C   0  0  0  0  0  0  0  0  0  0  0  0
    3.4950   -0.0869    0.5601 N   0  0  0  0  0  0  0  0  0  0  0  0
    2.1188   -0.1817    0.2948 C   0  0  0  0  0  0  0  0  0  0  0  0
    1.4683    0.5512   -0.7088 C   0  0  0  0  0  0  0  0  0  0  0  0
    0.0880    0.4343   -0.9288 C   0  0  0  0  0  0  0  0  0  0  0  0
   -0.6924   -0.4082   -0.1315 C   0  0  0  0  0  0  0  0  0  0  0  0
   -2.1711   -0.5762   -0.3626 C   0  0  0  0  0  0  0  0  0  0  0  0
   -2.8908    0.6991   -0.6220 N   0  0  0  0  0  0  0  0  0  0  0  0
   -3.3816    1.4684    0.5862 C   0  0  0  0  0  0  0  0  0  0  0  0
   -2.4284    1.7921    1.7562 C   0  0  0  0  0  0  0  0  0  0  0  0
   -3.1425    0.7284    2.6035 C   0  0  0  0  0  0  0  0  0  0  0  0
   -4.3082    0.7610    1.6011 C   0  0  0  0  0  0  0  0  0  0  0  0
   -3.6385    0.8263   -2.1507 S   0  0  0  0  0  0  0  0  0  0  0  0
   -4.1756    2.1627   -2.2903 O   0  0  0  0  0  0  0  0  0  0  0  0
   -2.7460    0.2745   -3.1474 O   0  0  0  0  0  0  0  0  0  0  0  0
   -5.0228   -0.2747   -1.9924 C   0  0  0  0  0  0  0  0  0  0  0  0
   -6.2062    0.1939   -1.4150 C   0  0  0  0  0  0  0  0  0  0  0  0
   -7.2932   -0.6664   -1.3157 C   0  0  0  0  0  0  0  0  0  0  0  0
   -8.4255   -0.2302   -0.7501 F   0  0  0  0  0  0  0  0  0  0  0  0
   -7.2257   -1.9696   -1.7915 C   0  0  0  0  0  0  0  0  0  0  0  0
   -6.0485   -2.4092   -2.3839 C   0  0  0  0  0  0  0  0  0  0  0  0
   -5.9765   -3.6607   -2.8540 F   0  0  0  0  0  0  0  0  0  0  0  0
   -4.9425   -1.5745   -2.4982 C   0  0  0  0  0  0  0  0  0  0  0  0
   -0.0485   -1.1433    0.8611 C   0  0  0  0  0  0  0  0  0  0  0  0
   -0.7562   -1.9780    1.6367 F   0  0  0  0  0  0  0  0  0  0  0  0
    1.3239   -1.0297    1.0798 C   0  0  0  0  0  0  0  0  0  0  0  0
    4.2293    1.0659   -0.0019 C   0  0  0  0  0  0  0  0  0  0  0  0
    5.6385    1.1643    0.6124 C   0  0  0  0  0  0  0  0  0  0  0  0
    8.2633    1.5094   -0.6862 H   0  0  0  0  0  0  0  0  0  0  0  0
    9.6072    0.8919    0.2864 H   0  0  0  0  0  0  0  0  0  0  0  0
    8.3372    1.8381    1.0810 H   0  0  0  0  0  0  0  0  0  0  0  0
    6.1928   -2.1943    0.7008 H   0  0  0  0  0  0  0  0  0  0  0  0
    5.5787   -1.2354    2.0523 H   0  0  0  0  0  0  0  0  0  0  0  0
    3.7102   -2.2114    0.8266 H   0  0  0  0  0  0  0  0  0  0  0  0
    4.2956   -1.5735   -0.7176 H   0  0  0  0  0  0  0  0  0  0  0  0
    2.0199    1.2199   -1.3634 H   0  0  0  0  0  0  0  0  0  0  0  0
   -0.3683    1.0109   -1.7319 H   0  0  0  0  0  0  0  0  0  0  0  0
   -2.2748   -1.2685   -1.2056 H   0  0  0  0  0  0  0  0  0  0  0  0
   -2.6443   -1.0946    0.4768 H   0  0  0  0  0  0  0  0  0  0  0  0
   -3.8393    2.4002    0.2261 H   0  0  0  0  0  0  0  0  0  0  0  0
   -2.5591    2.8096    2.1455 H   0  0  0  0  0  0  0  0  0  0  0  0
   -1.3606    1.6332    1.5980 H   0  0  0  0  0  0  0  0  0  0  0  0
   -2.6187   -0.2315    2.6482 H   0  0  0  0  0  0  0  0  0  0  0  0
   -3.3939    1.0341    3.6228 H   0  0  0  0  0  0  0  0  0  0  0  0
   -4.6973   -0.2193    1.3135 H   0  0  0  0  0  0  0  0  0  0  0  0
   -5.1489    1.3842    1.9276 H   0  0  0  0  0  0  0  0  0  0  0  0
   -6.2946    1.2125   -1.0471 H   0  0  0  0  0  0  0  0  0  0  0  0
   -8.0809   -2.6306   -1.7097 H   0  0  0  0  0  0  0  0  0  0  0  0
   -4.0431   -1.9451   -2.9822 H   0  0  0  0  0  0  0  0  0  0  0  0
    1.7627   -1.5993    1.8934 H   0  0  0  0  0  0  0  0  0  0  0  0
    3.6998    2.0023    0.2112 H   0  0  0  0  0  0  0  0  0  0  0  0
    4.3230    0.9570   -1.0902 H   0  0  0  0  0  0  0  0  0  0  0  0
    6.1837    1.9731    0.1191 H   0  0  0  0  0  0  0  0  0  0  0  0
    5.5686    1.4160    1.6778 H   0  0  0  0  0  0  0  0  0  0  0  0
  1  2  1  0
  2  3  2  0
  2  4  1  0
  4  5  1  0
  5  6  1  0
  6  7  1  0
  7  8  1  0
  8  9  1  0
  9 10  2  0
 10 11  1  0
 11 12  1  0
 12 13  1  0
 13 14  1  0
 14 15  1  0
 15 16  1  0
 16 17  1  0
 13 18  1  0
 18 19  2  0
 18 20  2  0
 18 21  1  0
 21 22  2  0
 22 23  1  0
 23 24  1  0
 23 25  2  0
 25 26  1  0
 26 27  1  0
 26 28  2  0
 11 29  2  0
 29 30  1  0
 29 31  1  0
  7 32  1  0
 32 33  1  0
 33  4  1  0
 31  8  2  0
 17 14  1  0
 28 21  1  0
  1 34  1  0
  1 35  1  0
  1 36  1  0
  5 37  1  0
  5 38  1  0
  6 39  1  0
  6 40  1  0
  9 41  1  0
 10 42  1  0
 12 43  1  0
 12 44  1  0
 14 45  1  0
 15 46  1  0
 15 47  1  0
 16 48  1  0
 16 49  1  0
 17 50  1  0
 17 51  1  0
 22 52  1  0
 25 53  1  0
 28 54  1  0
 31 55  1  0
 32 56  1  0
 32 57  1  0
 33 58  1  0
 33 59  1  0
M  END
>  <QED>  (25) 
0.634

>  <MW>  (25) 
481.5

$$$$
CHEMBL3581538
     RDKit          3D

 59 62  0  0  0  0  0  0  0  0999 V2000
    8.4381   -1.1466    0.8508 C   0  0  0  0  0  0  0  0  0  0  0  0
    7.6363   -1.6195   -0.3357 C   0  0  0  0  0  0  0  0  0  0  0  0
    8.1677   -2.2945   -1.2169 O   0  0  0  0  0  0  0  0  0  0  0  0
    6.3033   -1.2523   -0.3777 N   0  0  0  0  0  0  0  0  0  0  0  0
    5.6418   -0.4068    0.6207 C   0  0  0  0  0  0  0  0  0  0  0  0
    4.3198    0.2103    0.1245 C   0  0  0  0  0  0  0  0  0  0  0  0
    3.4016   -0.8218   -0.3834 N   0  0  0  0  0  0  0  0  0  0  0  0
    2.0327   -0.6072   -0.4530 C   0  0  0  0  0  0  0  0  0  0  0  0
    1.4670    0.6720   -0.3303 C   0  0  0  0  0  0  0  0  0  0  0  0
    0.0813    0.8893   -0.3902 C   0  0  0  0  0  0  0  0  0  0  0  0
   -0.8013   -0.1781   -0.5599 C   0  0  0  0  0  0  0  0  0  0  0  0
   -2.2948    0.0102   -0.6579 C   0  0  0  0  0  0  0  0  0  0  0  0
   -2.9329    0.8565    0.3913 N   0  0  0  0  0  0  0  0  0  0  0  0
   -2.5253    0.5612    1.8178 C   0  0  0  0  0  0  0  0  0  0  0  0
   -3.6373    0.7034    2.9008 C   0  0  0  0  0  0  0  0  0  0  0  0
   -3.8517   -0.8149    2.8082 C   0  0  0  0  0  0  0  0  0  0  0  0
   -2.4109   -0.9192    2.2877 C   0  0  0  0  0  0  0  0  0  0  0  0
   -3.4706    2.3982   -0.1322 S   0  0  0  0  0  0  0  0  0  0  0  0
   -2.4748    2.8855   -1.0625 O   0  0  0  0  0  0  0  0  0  0  0  0
   -3.8588    3.1604    1.0343 O   0  0  0  0  0  0  0  0  0  0  0  0
   -4.9610    2.0516   -1.0290 C   0  0  0  0  0  0  0  0  0  0  0  0
   -5.6367    0.8408   -0.8049 C   0  0  0  0  0  0  0  0  0  0  0  0
   -6.7974    0.5403   -1.5187 C   0  0  0  0  0  0  0  0  0  0  0  0
   -7.2937    1.4474   -2.4502 C   0  0  0  0  0  0  0  0  0  0  0  0
   -6.6365    2.6611   -2.6580 C   0  0  0  0  0  0  0  0  0  0  0  0
   -5.4712    2.9740   -1.9459 C   0  0  0  0  0  0  0  0  0  0  0  0
   -4.7854    4.5305   -2.2381 Cl  0  0  0  0  0  0  0  0  0  0  0  0
   -0.2474   -1.4492   -0.6984 C   0  0  0  0  0  0  0  0  0  0  0  0
   -1.0497   -2.5083   -0.8840 F   0  0  0  0  0  0  0  0  0  0  0  0
    1.1315   -1.6641   -0.6392 C   0  0  0  0  0  0  0  0  0  0  0  0
    4.0090   -1.9938   -1.0472 C   0  0  0  0  0  0  0  0  0  0  0  0
    5.4635   -1.7303   -1.4776 C   0  0  0  0  0  0  0  0  0  0  0  0
    7.9223   -1.3817    1.7852 H   0  0  0  0  0  0  0  0  0  0  0  0
    9.4035   -1.6618    0.8623 H   0  0  0  0  0  0  0  0  0  0  0  0
    8.6183   -0.0714    0.7733 H   0  0  0  0  0  0  0  0  0  0  0  0
    5.4476   -1.0450    1.4913 H   0  0  0  0  0  0  0  0  0  0  0  0
    6.3226    0.3900    0.9360 H   0  0  0  0  0  0  0  0  0  0  0  0
    4.5266    0.9330   -0.6744 H   0  0  0  0  0  0  0  0  0  0  0  0
    3.8753    0.7497    0.9692 H   0  0  0  0  0  0  0  0  0  0  0  0
    2.0976    1.5495   -0.2114 H   0  0  0  0  0  0  0  0  0  0  0  0
   -0.2877    1.9091   -0.3062 H   0  0  0  0  0  0  0  0  0  0  0  0
   -2.8037   -0.9613   -0.6174 H   0  0  0  0  0  0  0  0  0  0  0  0
   -2.5188    0.3925   -1.6612 H   0  0  0  0  0  0  0  0  0  0  0  0
   -1.6332    1.1515    2.0620 H   0  0  0  0  0  0  0  0  0  0  0  0
   -3.2565    1.0367    3.8737 H   0  0  0  0  0  0  0  0  0  0  0  0
   -4.5191    1.2975    2.6516 H   0  0  0  0  0  0  0  0  0  0  0  0
   -4.0551   -1.3257    3.7525 H   0  0  0  0  0  0  0  0  0  0  0  0
   -4.6085   -1.1112    2.0732 H   0  0  0  0  0  0  0  0  0  0  0  0
   -2.2569   -1.6946    1.5355 H   0  0  0  0  0  0  0  0  0  0  0  0
   -1.6675   -1.0627    3.0816 H   0  0  0  0  0  0  0  0  0  0  0  0
   -5.2813    0.1258   -0.0679 H   0  0  0  0  0  0  0  0  0  0  0  0
   -7.3182   -0.3986   -1.3430 H   0  0  0  0  0  0  0  0  0  0  0  0
   -8.2000    1.2182   -3.0062 H   0  0  0  0  0  0  0  0  0  0  0  0
   -7.0468    3.3695   -3.3752 H   0  0  0  0  0  0  0  0  0  0  0  0
    1.4776   -2.6891   -0.7227 H   0  0  0  0  0  0  0  0  0  0  0  0
    3.4465   -2.2727   -1.9465 H   0  0  0  0  0  0  0  0  0  0  0  0
    3.9835   -2.8404   -0.3505 H   0  0  0  0  0  0  0  0  0  0  0  0
    5.4882   -0.9525   -2.2507 H   0  0  0  0  0  0  0  0  0  0  0  0
    5.8873   -2.6404   -1.9152 H   0  0  0  0  0  0  0  0  0  0  0  0
  1  2  1  0
  2  3  2  0
  2  4  1  0
  4  5  1  0
  5  6  1  0
  6  7  1  0
  7  8  1  0
  8  9  1  0
  9 10  2  0
 10 11  1  0
 11 12  1  0
 12 13  1  0
 13 14  1  0
 14 15  1  0
 15 16  1  0
 16 17  1  0
 13 18  1  0
 18 19  2  0
 18 20  2  0
 18 21  1  0
 21 22  2  0
 22 23  1  0
 23 24  2  0
 24 25  1  0
 25 26  2  0
 26 27  1  0
 11 28  2  0
 28 29  1  0
 28 30  1  0
  7 31  1  0
 31 32  1  0
 32  4  1  0
 30  8  2  0
 17 14  1  0
 26 21  1  0
  1 33  1  0
  1 34  1  0
  1 35  1  0
  5 36  1  0
  5 37  1  0
  6 38  1  0
  6 39  1  0
  9 40  1  0
 10 41  1  0
 12 42  1  0
 12 43  1  0
 14 44  1  0
 15 45  1  0
 15 46  1  0
 16 47  1  0
 16 48  1  0
 17 49  1  0
 17 50  1  0
 22 51  1  0
 23 52  1  0
 24 53  1  0
 25 54  1  0
 30 55  1  0
 31 56  1  0
 31 57  1  0
 32 58  1  0
 32 59  1  0
M  END
>  <QED>  (26) 
0.63

>  <MW>  (26) 
480.0

$$$$
CHEMBL3581540
     RDKit          3D

 59 62  0  0  0  0  0  0  0  0999 V2000
    8.6636   -1.4860   -0.8717 C   0  0  0  0  0  0  0  0  0  0  0  0
    7.8953   -0.4166   -0.1367 C   0  0  0  0  0  0  0  0  0  0  0  0
    8.4876    0.4123    0.5535 O   0  0  0  0  0  0  0  0  0  0  0  0
    6.5201   -0.4172   -0.2869 N   0  0  0  0  0  0  0  0  0  0  0  0
    5.7767   -1.3444   -1.1451 C   0  0  0  0  0  0  0  0  0  0  0  0
    4.3641   -0.8456   -1.5068 C   0  0  0  0  0  0  0  0  0  0  0  0
    3.5868   -0.5083   -0.3039 N   0  0  0  0  0  0  0  0  0  0  0  0
    2.1997   -0.4916   -0.3119 C   0  0  0  0  0  0  0  0  0  0  0  0
    1.4569   -0.4984    0.8817 C   0  0  0  0  0  0  0  0  0  0  0  0
    0.0545   -0.4854    0.8926 C   0  0  0  0  0  0  0  0  0  0  0  0
   -0.6622   -0.4575   -0.3050 C   0  0  0  0  0  0  0  0  0  0  0  0
   -2.1689   -0.4655   -0.3236 C   0  0  0  0  0  0  0  0  0  0  0  0
   -2.7813    0.5503    0.5737 N   0  0  0  0  0  0  0  0  0  0  0  0
   -2.6325    1.9590    0.0543 C   0  0  0  0  0  0  0  0  0  0  0  0
   -2.6898    3.1503    1.0318 C   0  0  0  0  0  0  0  0  0  0  0  0
   -4.0891    3.4927    0.4961 C   0  0  0  0  0  0  0  0  0  0  0  0
   -3.8108    2.5894   -0.7151 C   0  0  0  0  0  0  0  0  0  0  0  0
   -3.8096   -0.0416    1.7831 S   0  0  0  0  0  0  0  0  0  0  0  0
   -3.1496   -1.1671    2.4133 O   0  0  0  0  0  0  0  0  0  0  0  0
   -4.3063    1.0563    2.5819 O   0  0  0  0  0  0  0  0  0  0  0  0
   -5.1946   -0.6882    0.8678 C   0  0  0  0  0  0  0  0  0  0  0  0
   -5.2366   -2.0470    0.5329 C   0  0  0  0  0  0  0  0  0  0  0  0
   -6.3386   -2.5558   -0.1551 C   0  0  0  0  0  0  0  0  0  0  0  0
   -7.4003   -1.7134   -0.4893 C   0  0  0  0  0  0  0  0  0  0  0  0
   -7.3639   -0.3677   -0.1224 C   0  0  0  0  0  0  0  0  0  0  0  0
   -8.6834    0.6607   -0.5229 Cl  0  0  0  0  0  0  0  0  0  0  0  0
   -6.2706    0.1504    0.5664 C   0  0  0  0  0  0  0  0  0  0  0  0
    0.0621   -0.4698   -1.4932 C   0  0  0  0  0  0  0  0  0  0  0  0
   -0.5854   -0.4618   -2.6680 F   0  0  0  0  0  0  0  0  0  0  0  0
    1.4589   -0.4844   -1.5016 C   0  0  0  0  0  0  0  0  0  0  0  0
    4.3356    0.0187    0.8557 C   0  0  0  0  0  0  0  0  0  0  0  0
    5.7202    0.5597    0.4548 C   0  0  0  0  0  0  0  0  0  0  0  0
    8.6725   -1.2678   -1.9426 H   0  0  0  0  0  0  0  0  0  0  0  0
    8.2299   -2.4718   -0.6856 H   0  0  0  0  0  0  0  0  0  0  0  0
    9.6964   -1.5010   -0.5102 H   0  0  0  0  0  0  0  0  0  0  0  0
    5.7054   -2.2905   -0.5949 H   0  0  0  0  0  0  0  0  0  0  0  0
    6.3439   -1.5330   -2.0618 H   0  0  0  0  0  0  0  0  0  0  0  0
    3.8741   -1.6416   -2.0800 H   0  0  0  0  0  0  0  0  0  0  0  0
    4.4390    0.0421   -2.1468 H   0  0  0  0  0  0  0  0  0  0  0  0
    1.9607   -0.5409    1.8447 H   0  0  0  0  0  0  0  0  0  0  0  0
   -0.4677   -0.5025    1.8481 H   0  0  0  0  0  0  0  0  0  0  0  0
   -2.4820   -1.4813   -0.0629 H   0  0  0  0  0  0  0  0  0  0  0  0
   -2.5507   -0.2898   -1.3372 H   0  0  0  0  0  0  0  0  0  0  0  0
   -1.7100    2.0266   -0.5395 H   0  0  0  0  0  0  0  0  0  0  0  0
   -1.9434    3.9233    0.8110 H   0  0  0  0  0  0  0  0  0  0  0  0
   -2.6278    2.9223    2.0982 H   0  0  0  0  0  0  0  0  0  0  0  0
   -4.9099    3.1495    1.1317 H   0  0  0  0  0  0  0  0  0  0  0  0
   -4.2524    4.5484    0.2618 H   0  0  0  0  0  0  0  0  0  0  0  0
   -4.6232    1.9182   -1.0005 H   0  0  0  0  0  0  0  0  0  0  0  0
   -3.4966    3.1434   -1.6077 H   0  0  0  0  0  0  0  0  0  0  0  0
   -4.4248   -2.7162    0.8119 H   0  0  0  0  0  0  0  0  0  0  0  0
   -6.3762   -3.6097   -0.4220 H   0  0  0  0  0  0  0  0  0  0  0  0
   -8.2587   -2.1141   -1.0231 H   0  0  0  0  0  0  0  0  0  0  0  0
   -6.2627    1.1936    0.8693 H   0  0  0  0  0  0  0  0  0  0  0  0
    1.9458   -0.4680   -2.4705 H   0  0  0  0  0  0  0  0  0  0  0  0
    3.7899    0.8393    1.3369 H   0  0  0  0  0  0  0  0  0  0  0  0
    4.4583   -0.7884    1.5880 H   0  0  0  0  0  0  0  0  0  0  0  0
    6.2576    0.8925    1.3492 H   0  0  0  0  0  0  0  0  0  0  0  0
    5.6038    1.4309   -0.2016 H   0  0  0  0  0  0  0  0  0  0  0  0
  1  2  1  0
  2  3  2  0
  2  4  1  0
  4  5  1  0
  5  6  1  0
  6  7  1  0
  7  8  1  0
  8  9  1  0
  9 10  2  0
 10 11  1  0
 11 12  1  0
 12 13  1  0
 13 14  1  0
 14 15  1  0
 15 16  1  0
 16 17  1  0
 13 18  1  0
 18 19  2  0
 18 20  2  0
 18 21  1  0
 21 22  2  0
 22 23  1  0
 23 24  2  0
 24 25  1  0
 25 26  1  0
 25 27  2  0
 11 28  2  0
 28 29  1  0
 28 30  1  0
  7 31  1  0
 31 32  1  0
 32  4  1  0
 30  8  2  0
 17 14  1  0
 27 21  1  0
  1 33  1  0
  1 34  1  0
  1 35  1  0
  5 36  1  0
  5 37  1  0
  6 38  1  0
  6 39  1  0
  9 40  1  0
 10 41  1  0
 12 42  1  0
 12 43  1  0
 14 44  1  0
 15 45  1  0
 15 46  1  0
 16 47  1  0
 16 48  1  0
 17 49  1  0
 17 50  1  0
 22 51  1  0
 23 52  1  0
 24 53  1  0
 27 54  1  0
 30 55  1  0
 31 56  1  0
 31 57  1  0
 32 58  1  0
 32 59  1  0
M  END
>  <QED>  (27) 
0.63

>  <MW>  (27) 
480.0

$$$$
CHEMBL3581542
     RDKit          3D

 59 62  0  0  0  0  0  0  0  0999 V2000
    8.1868   -2.0372   -1.2738 C   0  0  0  0  0  0  0  0  0  0  0  0
    7.6448   -1.1177   -0.2084 C   0  0  0  0  0  0  0  0  0  0  0  0
    8.4110   -0.4565    0.4918 O   0  0  0  0  0  0  0  0  0  0  0  0
    6.2701   -1.0687   -0.0625 N   0  0  0  0  0  0  0  0  0  0  0  0
    5.6877   -0.1465    0.9144 C   0  0  0  0  0  0  0  0  0  0  0  0
    4.3216    0.4091    0.4723 C   0  0  0  0  0  0  0  0  0  0  0  0
    3.3693   -0.6657    0.1245 N   0  0  0  0  0  0  0  0  0  0  0  0
    2.0038   -0.4700    0.2681 C   0  0  0  0  0  0  0  0  0  0  0  0
    1.4350    0.8143    0.2242 C   0  0  0  0  0  0  0  0  0  0  0  0
    0.0552    1.0303    0.3601 C   0  0  0  0  0  0  0  0  0  0  0  0
   -0.8181   -0.0441    0.5343 C   0  0  0  0  0  0  0  0  0  0  0  0
   -2.3033    0.1492    0.7062 C   0  0  0  0  0  0  0  0  0  0  0  0
   -2.9950    0.9236   -0.3592 N   0  0  0  0  0  0  0  0  0  0  0  0
   -2.6466    0.5325   -1.7682 C   0  0  0  0  0  0  0  0  0  0  0  0
   -2.6594   -0.9787   -2.1395 C   0  0  0  0  0  0  0  0  0  0  0  0
   -3.1849   -0.5652   -3.5258 C   0  0  0  0  0  0  0  0  0  0  0  0
   -3.7570    0.6910   -2.8457 C   0  0  0  0  0  0  0  0  0  0  0  0
   -3.5797    2.4566    0.0839 S   0  0  0  0  0  0  0  0  0  0  0  0
   -2.5497    3.1337    0.8430 O   0  0  0  0  0  0  0  0  0  0  0  0
   -4.1930    3.0812   -1.0676 O   0  0  0  0  0  0  0  0  0  0  0  0
   -4.8999    2.0346    1.2018 C   0  0  0  0  0  0  0  0  0  0  0  0
   -6.0367    1.3947    0.6960 C   0  0  0  0  0  0  0  0  0  0  0  0
   -7.0796    1.0610    1.5620 C   0  0  0  0  0  0  0  0  0  0  0  0
   -6.9815    1.3734    2.9188 C   0  0  0  0  0  0  0  0  0  0  0  0
   -8.2675    0.9591    3.9838 Cl  0  0  0  0  0  0  0  0  0  0  0  0
   -5.8505    2.0211    3.4195 C   0  0  0  0  0  0  0  0  0  0  0  0
   -4.8035    2.3581    2.5589 C   0  0  0  0  0  0  0  0  0  0  0  0
   -0.2625   -1.3203    0.5907 C   0  0  0  0  0  0  0  0  0  0  0  0
   -1.0565   -2.3852    0.7782 F   0  0  0  0  0  0  0  0  0  0  0  0
    1.1114   -1.5335    0.4539 C   0  0  0  0  0  0  0  0  0  0  0  0
    3.9342   -1.9923   -0.1700 C   0  0  0  0  0  0  0  0  0  0  0  0
    5.3220   -1.8810   -0.8307 C   0  0  0  0  0  0  0  0  0  0  0  0
    7.6786   -1.8680   -2.2265 H   0  0  0  0  0  0  0  0  0  0  0  0
    9.2514   -1.8307   -1.4210 H   0  0  0  0  0  0  0  0  0  0  0  0
    8.0741   -3.0778   -0.9594 H   0  0  0  0  0  0  0  0  0  0  0  0
    5.5757   -0.7107    1.8485 H   0  0  0  0  0  0  0  0  0  0  0  0
    6.3747    0.6831    1.1131 H   0  0  0  0  0  0  0  0  0  0  0  0
    4.4573    1.0528   -0.4052 H   0  0  0  0  0  0  0  0  0  0  0  0
    3.9370    1.0250    1.2941 H   0  0  0  0  0  0  0  0  0  0  0  0
    2.0601    1.6890    0.0593 H   0  0  0  0  0  0  0  0  0  0  0  0
   -0.3192    2.0509    0.3196 H   0  0  0  0  0  0  0  0  0  0  0  0
   -2.4609    0.6032    1.6914 H   0  0  0  0  0  0  0  0  0  0  0  0
   -2.8116   -0.8215    0.7651 H   0  0  0  0  0  0  0  0  0  0  0  0
   -1.7172    1.0306   -2.0784 H   0  0  0  0  0  0  0  0  0  0  0  0
   -1.6886   -1.4805   -2.1454 H   0  0  0  0  0  0  0  0  0  0  0  0
   -3.3710   -1.5836   -1.5653 H   0  0  0  0  0  0  0  0  0  0  0  0
   -3.9169   -1.2380   -3.9788 H   0  0  0  0  0  0  0  0  0  0  0  0
   -2.3935   -0.3528   -4.2536 H   0  0  0  0  0  0  0  0  0  0  0  0
   -3.7141    1.6045   -3.4446 H   0  0  0  0  0  0  0  0  0  0  0  0
   -4.7783    0.5570   -2.4706 H   0  0  0  0  0  0  0  0  0  0  0  0
   -6.1149    1.1613   -0.3636 H   0  0  0  0  0  0  0  0  0  0  0  0
   -7.9654    0.5637    1.1744 H   0  0  0  0  0  0  0  0  0  0  0  0
   -5.7819    2.2693    4.4760 H   0  0  0  0  0  0  0  0  0  0  0  0
   -3.9276    2.8703    2.9515 H   0  0  0  0  0  0  0  0  0  0  0  0
    1.4598   -2.5583    0.5231 H   0  0  0  0  0  0  0  0  0  0  0  0
    4.0143   -2.5637    0.7628 H   0  0  0  0  0  0  0  0  0  0  0  0
    3.2887   -2.5493   -0.8594 H   0  0  0  0  0  0  0  0  0  0  0  0
    5.2265   -1.4038   -1.8136 H   0  0  0  0  0  0  0  0  0  0  0  0
    5.7355   -2.8825   -0.9845 H   0  0  0  0  0  0  0  0  0  0  0  0
  1  2  1  0
  2  3  2  0
  2  4  1  0
  4  5  1  0
  5  6  1  0
  6  7  1  0
  7  8  1  0
  8  9  1  0
  9 10  2  0
 10 11  1  0
 11 12  1  0
 12 13  1  0
 13 14  1  0
 14 15  1  0
 15 16  1  0
 16 17  1  0
 13 18  1  0
 18 19  2  0
 18 20  2  0
 18 21  1  0
 21 22  1  0
 22 23  2  0
 23 24  1  0
 24 25  1  0
 24 26  2  0
 26 27  1  0
 11 28  2  0
 28 29  1  0
 28 30  1  0
  7 31  1  0
 31 32  1  0
 32  4  1  0
 30  8  2  0
 17 14  1  0
 27 21  2  0
  1 33  1  0
  1 34  1  0
  1 35  1  0
  5 36  1  0
  5 37  1  0
  6 38  1  0
  6 39  1  0
  9 40  1  0
 10 41  1  0
 12 42  1  0
 12 43  1  0
 14 44  1  0
 15 45  1  0
 15 46  1  0
 16 47  1  0
 16 48  1  0
 17 49  1  0
 17 50  1  0
 22 51  1  0
 23 52  1  0
 26 53  1  0
 27 54  1  0
 30 55  1  0
 31 56  1  0
 31 57  1  0
 32 58  1  0
 32 59  1  0
M  END
>  <QED>  (28) 
0.63

>  <MW>  (28) 
480.0

$$$$
CHEMBL3317833
     RDKit          3D

 64 66  0  0  0  0  0  0  0  0999 V2000
    8.9960   -0.4315    0.3394 C   0  0  0  0  0  0  0  0  0  0  0  0
    7.8084   -1.3592    0.3779 C   0  0  0  0  0  0  0  0  0  0  0  0
    7.9239   -2.4995    0.8265 O   0  0  0  0  0  0  0  0  0  0  0  0
    6.6091   -0.8665   -0.1028 N   0  0  0  0  0  0  0  0  0  0  0  0
    5.4457   -1.7608   -0.1551 C   0  0  0  0  0  0  0  0  0  0  0  0
    4.4497   -1.3542   -1.2519 C   0  0  0  0  0  0  0  0  0  0  0  0
    3.9775    0.0388   -1.0879 N   0  0  0  0  0  0  0  0  0  0  0  0
    2.6584    0.2640   -0.6672 C   0  0  0  0  0  0  0  0  0  0  0  0
    1.9279   -0.6405    0.1128 C   0  0  0  0  0  0  0  0  0  0  0  0
    0.6150   -0.3621    0.5117 C   0  0  0  0  0  0  0  0  0  0  0  0
   -0.0086    0.8330    0.1369 C   0  0  0  0  0  0  0  0  0  0  0  0
   -1.4274    1.1116    0.5676 C   0  0  0  0  0  0  0  0  0  0  0  0
   -2.4200    0.2184   -0.0816 N   0  0  0  0  0  0  0  0  0  0  0  0
   -2.7702    0.5960   -1.4770 C   0  0  0  0  0  0  0  0  0  0  0  0
   -2.7038   -0.6046   -2.4367 C   0  0  0  0  0  0  0  0  0  0  0  0
   -1.2922   -1.1775   -2.5605 C   0  0  0  0  0  0  0  0  0  0  0  0
   -3.2129   -0.1855   -3.8185 C   0  0  0  0  0  0  0  0  0  0  0  0
   -3.6747   -0.3476    0.9264 S   0  0  0  0  0  0  0  0  0  0  0  0
   -3.0426   -0.8552    2.1279 O   0  0  0  0  0  0  0  0  0  0  0  0
   -4.5374   -1.1861    0.1205 O   0  0  0  0  0  0  0  0  0  0  0  0
   -4.5538    1.1758    1.3302 C   0  0  0  0  0  0  0  0  0  0  0  0
   -5.7116    0.8592    2.2407 C   0  0  0  0  0  0  0  0  0  0  0  0
   -6.9711    0.5463    1.7092 C   0  0  0  0  0  0  0  0  0  0  0  0
   -8.0429    0.2530    2.5536 C   0  0  0  0  0  0  0  0  0  0  0  0
   -7.8673    0.2665    3.9356 C   0  0  0  0  0  0  0  0  0  0  0  0
   -6.6188    0.5685    4.4751 C   0  0  0  0  0  0  0  0  0  0  0  0
   -5.5451    0.8622    3.6333 C   0  0  0  0  0  0  0  0  0  0  0  0
    0.7100    1.7478   -0.6368 C   0  0  0  0  0  0  0  0  0  0  0  0
    2.0232    1.4633   -1.0276 C   0  0  0  0  0  0  0  0  0  0  0  0
    4.9396    0.9698   -0.4488 C   0  0  0  0  0  0  0  0  0  0  0  0
    6.3981    0.4986   -0.6032 C   0  0  0  0  0  0  0  0  0  0  0  0
    9.1068    0.0129   -0.6531 H   0  0  0  0  0  0  0  0  0  0  0  0
    8.8844    0.3472    1.0981 H   0  0  0  0  0  0  0  0  0  0  0  0
    9.9056   -1.0004    0.5550 H   0  0  0  0  0  0  0  0  0  0  0  0
    4.9684   -1.7187    0.8310 H   0  0  0  0  0  0  0  0  0  0  0  0
    5.7784   -2.7912   -0.3208 H   0  0  0  0  0  0  0  0  0  0  0  0
    3.6278   -2.0757   -1.3171 H   0  0  0  0  0  0  0  0  0  0  0  0
    4.9603   -1.4062   -2.2224 H   0  0  0  0  0  0  0  0  0  0  0  0
    2.3660   -1.5756    0.4476 H   0  0  0  0  0  0  0  0  0  0  0  0
    0.0731   -1.0931    1.1110 H   0  0  0  0  0  0  0  0  0  0  0  0
   -1.4551    1.0145    1.6592 H   0  0  0  0  0  0  0  0  0  0  0  0
   -1.6923    2.1565    0.3610 H   0  0  0  0  0  0  0  0  0  0  0  0
   -2.1013    1.3866   -1.8381 H   0  0  0  0  0  0  0  0  0  0  0  0
   -3.7745    1.0345   -1.4943 H   0  0  0  0  0  0  0  0  0  0  0  0
   -3.3556   -1.4072   -2.0757 H   0  0  0  0  0  0  0  0  0  0  0  0
   -0.9617   -1.6108   -1.6125 H   0  0  0  0  0  0  0  0  0  0  0  0
   -0.5732   -0.4088   -2.8622 H   0  0  0  0  0  0  0  0  0  0  0  0
   -1.2618   -1.9777   -3.3080 H   0  0  0  0  0  0  0  0  0  0  0  0
   -3.2067   -1.0346   -4.5102 H   0  0  0  0  0  0  0  0  0  0  0  0
   -2.5900    0.6064   -4.2485 H   0  0  0  0  0  0  0  0  0  0  0  0
   -4.2413    0.1860   -3.7578 H   0  0  0  0  0  0  0  0  0  0  0  0
   -3.8561    1.8610    1.8201 H   0  0  0  0  0  0  0  0  0  0  0  0
   -4.9079    1.6324    0.4021 H   0  0  0  0  0  0  0  0  0  0  0  0
   -7.1258    0.5136    0.6322 H   0  0  0  0  0  0  0  0  0  0  0  0
   -9.0135    0.0041    2.1322 H   0  0  0  0  0  0  0  0  0  0  0  0
   -8.7008    0.0309    4.5920 H   0  0  0  0  0  0  0  0  0  0  0  0
   -6.4785    0.5656    5.5531 H   0  0  0  0  0  0  0  0  0  0  0  0
   -4.5744    1.0788    4.0755 H   0  0  0  0  0  0  0  0  0  0  0  0
    0.2587    2.6843   -0.9536 H   0  0  0  0  0  0  0  0  0  0  0  0
    2.5508    2.1820   -1.6502 H   0  0  0  0  0  0  0  0  0  0  0  0
    4.8451    1.9676   -0.8929 H   0  0  0  0  0  0  0  0  0  0  0  0
    4.7198    1.0545    0.6245 H   0  0  0  0  0  0  0  0  0  0  0  0
    7.0618    1.1961   -0.0843 H   0  0  0  0  0  0  0  0  0  0  0  0
    6.6815    0.4932   -1.6626 H   0  0  0  0  0  0  0  0  0  0  0  0
  1  2  1  0
  2  3  2  0
  2  4  1  0
  4  5  1  0
  5  6  1  0
  6  7  1  0
  7  8  1  0
  8  9  1  0
  9 10  2  0
 10 11  1  0
 11 12  1  0
 12 13  1  0
 13 14  1  0
 14 15  1  0
 15 16  1  0
 15 17  1  0
 13 18  1  0
 18 19  2  0
 18 20  2  0
 18 21  1  0
 21 22  1  0
 22 23  2  0
 23 24  1  0
 24 25  2  0
 25 26  1  0
 26 27  2  0
 11 28  2  0
 28 29  1  0
  7 30  1  0
 30 31  1  0
 31  4  1  0
 29  8  2  0
 27 22  1  0
  1 32  1  0
  1 33  1  0
  1 34  1  0
  5 35  1  0
  5 36  1  0
  6 37  1  0
  6 38  1  0
  9 39  1  0
 10 40  1  0
 12 41  1  0
 12 42  1  0
 14 43  1  0
 14 44  1  0
 15 45  1  0
 16 46  1  0
 16 47  1  0
 16 48  1  0
 17 49  1  0
 17 50  1  0
 17 51  1  0
 21 52  1  0
 21 53  1  0
 23 54  1  0
 24 55  1  0
 25 56  1  0
 26 57  1  0
 27 58  1  0
 28 59  1  0
 29 60  1  0
 30 61  1  0
 30 62  1  0
 31 63  1  0
 31 64  1  0
M  END
>  <QED>  (29) 
0.628

>  <MW>  (29) 
443.6

$$$$
CHEMBL3317830
     RDKit          3D

 61 63  0  0  0  0  0  0  0  0999 V2000
    0.6408   -2.1874    1.0928 C   0  0  0  0  0  0  0  0  0  0  0  0
    2.0832   -2.1137    0.5920 C   0  0  0  0  0  0  0  0  0  0  0  0
    2.5722   -3.5163    0.2213 C   0  0  0  0  0  0  0  0  0  0  0  0
    2.2393   -1.1765   -0.6182 C   0  0  0  0  0  0  0  0  0  0  0  0
    1.9211    0.2348   -0.2758 N   0  0  0  0  0  0  0  0  0  0  0  0
    0.9819    0.9020   -1.2118 C   0  0  0  0  0  0  0  0  0  0  0  0
   -0.4604    0.5441   -0.9538 C   0  0  0  0  0  0  0  0  0  0  0  0
   -1.1821   -0.2611   -1.8394 C   0  0  0  0  0  0  0  0  0  0  0  0
   -2.5200   -0.5882   -1.5781 C   0  0  0  0  0  0  0  0  0  0  0  0
   -3.1753   -0.1305   -0.4263 C   0  0  0  0  0  0  0  0  0  0  0  0
   -4.5155   -0.4330   -0.1190 N   0  0  0  0  0  0  0  0  0  0  0  0
   -4.6562   -1.2099    1.1253 C   0  0  0  0  0  0  0  0  0  0  0  0
   -6.1062   -1.1561    1.5979 C   0  0  0  0  0  0  0  0  0  0  0  0
   -7.0581   -1.6232    0.4942 C   0  0  0  0  0  0  0  0  0  0  0  0
   -8.4572   -1.5105    0.9380 C   0  0  0  0  0  0  0  0  0  0  0  0
   -9.5618   -1.4338    1.2844 N   0  0  0  0  0  0  0  0  0  0  0  0
   -6.8356   -0.8125   -0.7848 C   0  0  0  0  0  0  0  0  0  0  0  0
   -5.3750   -0.8833   -1.2198 C   0  0  0  0  0  0  0  0  0  0  0  0
   -2.4390    0.6892    0.4445 C   0  0  0  0  0  0  0  0  0  0  0  0
   -1.1041    1.0205    0.1918 C   0  0  0  0  0  0  0  0  0  0  0  0
    3.1845    1.2100    0.3265 S   0  0  0  0  0  0  0  0  0  0  0  0
    3.9884    0.3866    1.2057 O   0  0  0  0  0  0  0  0  0  0  0  0
    2.5723    2.4365    0.7968 O   0  0  0  0  0  0  0  0  0  0  0  0
    4.1326    1.5669   -1.1669 C   0  0  0  0  0  0  0  0  0  0  0  0
    5.3067    2.4436   -0.8166 C   0  0  0  0  0  0  0  0  0  0  0  0
    6.5362    1.8757   -0.4521 C   0  0  0  0  0  0  0  0  0  0  0  0
    7.6230    2.6890   -0.1276 C   0  0  0  0  0  0  0  0  0  0  0  0
    7.4925    4.0756   -0.1612 C   0  0  0  0  0  0  0  0  0  0  0  0
    6.2740    4.6511   -0.5146 C   0  0  0  0  0  0  0  0  0  0  0  0
    5.1853    3.8406   -0.8395 C   0  0  0  0  0  0  0  0  0  0  0  0
    0.3138   -1.2219    1.4884 H   0  0  0  0  0  0  0  0  0  0  0  0
    0.5489   -2.9161    1.9056 H   0  0  0  0  0  0  0  0  0  0  0  0
   -0.0453   -2.4875    0.2942 H   0  0  0  0  0  0  0  0  0  0  0  0
    2.7032   -1.7575    1.4216 H   0  0  0  0  0  0  0  0  0  0  0  0
    1.9789   -3.9414   -0.5956 H   0  0  0  0  0  0  0  0  0  0  0  0
    3.6199   -3.4916   -0.0965 H   0  0  0  0  0  0  0  0  0  0  0  0
    2.5012   -4.1933    1.0793 H   0  0  0  0  0  0  0  0  0  0  0  0
    3.2617   -1.2349   -1.0085 H   0  0  0  0  0  0  0  0  0  0  0  0
    1.5956   -1.5266   -1.4343 H   0  0  0  0  0  0  0  0  0  0  0  0
    1.0592    1.9937   -1.1472 H   0  0  0  0  0  0  0  0  0  0  0  0
    1.2599    0.6532   -2.2441 H   0  0  0  0  0  0  0  0  0  0  0  0
   -0.7140   -0.6491   -2.7407 H   0  0  0  0  0  0  0  0  0  0  0  0
   -3.0281   -1.2279   -2.2927 H   0  0  0  0  0  0  0  0  0  0  0  0
   -4.3540   -2.2510    0.9511 H   0  0  0  0  0  0  0  0  0  0  0  0
   -4.0271   -0.8200    1.9338 H   0  0  0  0  0  0  0  0  0  0  0  0
   -6.2237   -1.7802    2.4925 H   0  0  0  0  0  0  0  0  0  0  0  0
   -6.3531   -0.1282    1.8972 H   0  0  0  0  0  0  0  0  0  0  0  0
   -6.8508   -2.6800    0.2786 H   0  0  0  0  0  0  0  0  0  0  0  0
   -7.4774   -1.1874   -1.5918 H   0  0  0  0  0  0  0  0  0  0  0  0
   -7.1178    0.2365   -0.6199 H   0  0  0  0  0  0  0  0  0  0  0  0
   -5.2521   -0.2370   -2.0977 H   0  0  0  0  0  0  0  0  0  0  0  0
   -5.1256   -1.9116   -1.5115 H   0  0  0  0  0  0  0  0  0  0  0  0
   -2.9135    1.1000    1.3328 H   0  0  0  0  0  0  0  0  0  0  0  0
   -0.5664    1.6499    0.8997 H   0  0  0  0  0  0  0  0  0  0  0  0
    3.4774    2.0705   -1.8834 H   0  0  0  0  0  0  0  0  0  0  0  0
    4.4730    0.6223   -1.5994 H   0  0  0  0  0  0  0  0  0  0  0  0
    6.6550    0.7949   -0.4031 H   0  0  0  0  0  0  0  0  0  0  0  0
    8.5699    2.2399    0.1612 H   0  0  0  0  0  0  0  0  0  0  0  0
    8.3375    4.7078    0.0985 H   0  0  0  0  0  0  0  0  0  0  0  0
    6.1683    5.7329   -0.5277 H   0  0  0  0  0  0  0  0  0  0  0  0
    4.2379    4.3110   -1.0964 H   0  0  0  0  0  0  0  0  0  0  0  0
  1  2  1  0
  2  3  1  0
  2  4  1  0
  4  5  1  0
  5  6  1  0
  6  7  1  0
  7  8  1  0
  8  9  2  0
  9 10  1  0
 10 11  1  0
 11 12  1  0
 12 13  1  0
 13 14  1  0
 14 15  1  0
 15 16  3  0
 14 17  1  0
 17 18  1  0
 10 19  2  0
 19 20  1  0
  5 21  1  0
 21 22  2  0
 21 23  2  0
 21 24  1  0
 24 25  1  0
 25 26  2  0
 26 27  1  0
 27 28  2  0
 28 29  1  0
 29 30  2  0
 20  7  2  0
 30 25  1  0
 18 11  1  0
  1 31  1  0
  1 32  1  0
  1 33  1  0
  2 34  1  0
  3 35  1  0
  3 36  1  0
  3 37  1  0
  4 38  1  0
  4 39  1  0
  6 40  1  0
  6 41  1  0
  8 42  1  0
  9 43  1  0
 12 44  1  0
 12 45  1  0
 13 46  1  0
 13 47  1  0
 14 48  1  0
 17 49  1  0
 17 50  1  0
 18 51  1  0
 18 52  1  0
 19 53  1  0
 20 54  1  0
 24 55  1  0
 24 56  1  0
 26 57  1  0
 27 58  1  0
 28 59  1  0
 29 60  1  0
 30 61  1  0
M  END
>  <QED>  (30) 
0.628

>  <MW>  (30) 
425.6

$$$$
CHEMBL62136
     RDKit          3D

 43 44  0  0  0  0  0  0  0  0999 V2000
   -1.8721   -0.0823    2.6081 O   0  0  0  0  0  0  0  0  0  0  0  0
   -1.9204    0.6366    1.3497 S   0  0  0  0  0  0  0  0  0  0  0  0
   -1.4496    2.0011    1.2454 O   0  0  0  0  0  0  0  0  0  0  0  0
   -3.6012    0.6263    0.7732 C   0  0  0  0  0  0  0  0  0  0  0  0
   -4.6005    0.0035    1.5263 C   0  0  0  0  0  0  0  0  0  0  0  0
   -5.9131    0.0064    1.0547 C   0  0  0  0  0  0  0  0  0  0  0  0
   -6.2204    0.6331   -0.1547 C   0  0  0  0  0  0  0  0  0  0  0  0
   -5.2197    1.2650   -0.8954 C   0  0  0  0  0  0  0  0  0  0  0  0
   -3.9050    1.2678   -0.4314 C   0  0  0  0  0  0  0  0  0  0  0  0
   -1.1255   -0.3295    0.1806 N   0  0  0  0  0  0  0  0  0  0  0  0
   -1.5461   -1.7792    0.1464 C   0  0  0  0  0  0  0  0  0  0  0  0
   -1.9516   -2.2420   -1.2496 C   0  0  0  0  0  0  0  0  0  0  0  0
   -2.4068   -3.5171   -1.2066 F   0  0  0  0  0  0  0  0  0  0  0  0
   -0.9160   -2.2160   -2.1164 F   0  0  0  0  0  0  0  0  0  0  0  0
   -2.9413   -1.4800   -1.7639 F   0  0  0  0  0  0  0  0  0  0  0  0
    0.2974   -0.1221    0.0977 C   0  0  0  0  0  0  0  0  0  0  0  0
    1.1408   -0.2939    1.1956 C   0  0  0  0  0  0  0  0  0  0  0  0
    2.5269   -0.1544    1.0529 C   0  0  0  0  0  0  0  0  0  0  0  0
    3.1021    0.1308   -0.1974 C   0  0  0  0  0  0  0  0  0  0  0  0
    4.6134    0.3152   -0.3934 C   0  0  0  0  0  0  0  0  0  0  0  0
    4.9406   -0.2371   -1.7159 O   0  0  0  0  0  0  0  0  0  0  0  0
    5.5017   -0.3640    0.6563 C   0  0  0  0  0  0  0  0  0  0  0  0
    5.2027   -1.6808    0.7853 F   0  0  0  0  0  0  0  0  0  0  0  0
    6.8061   -0.3113    0.2839 F   0  0  0  0  0  0  0  0  0  0  0  0
    5.4145    0.1835    1.8857 F   0  0  0  0  0  0  0  0  0  0  0  0
    4.9995    1.7975   -0.3244 C   0  0  0  0  0  0  0  0  0  0  0  0
    4.3306    2.5345   -1.2455 F   0  0  0  0  0  0  0  0  0  0  0  0
    4.7588    2.3540    0.8812 F   0  0  0  0  0  0  0  0  0  0  0  0
    6.3176    1.9675   -0.5948 F   0  0  0  0  0  0  0  0  0  0  0  0
    2.2319    0.2793   -1.2958 C   0  0  0  0  0  0  0  0  0  0  0  0
    0.8482    0.1431   -1.1523 C   0  0  0  0  0  0  0  0  0  0  0  0
   -4.3715   -0.4767    2.4749 H   0  0  0  0  0  0  0  0  0  0  0  0
   -6.7002   -0.4742    1.6311 H   0  0  0  0  0  0  0  0  0  0  0  0
   -7.2454    0.6352   -0.5187 H   0  0  0  0  0  0  0  0  0  0  0  0
   -5.4665    1.7571   -1.8333 H   0  0  0  0  0  0  0  0  0  0  0  0
   -3.1274    1.7659   -1.0065 H   0  0  0  0  0  0  0  0  0  0  0  0
   -2.3989   -1.9470    0.8120 H   0  0  0  0  0  0  0  0  0  0  0  0
   -0.7397   -2.4191    0.5236 H   0  0  0  0  0  0  0  0  0  0  0  0
    0.7366   -0.5306    2.1775 H   0  0  0  0  0  0  0  0  0  0  0  0
    3.1301   -0.2747    1.9511 H   0  0  0  0  0  0  0  0  0  0  0  0
    5.9045   -0.1292   -1.8431 H   0  0  0  0  0  0  0  0  0  0  0  0
    2.6273    0.5021   -2.2872 H   0  0  0  0  0  0  0  0  0  0  0  0
    0.2079    0.2555   -2.0237 H   0  0  0  0  0  0  0  0  0  0  0  0
  1  2  2  0
  2  3  2  0
  2  4  1  0
  4  5  2  0
  5  6  1  0
  6  7  2  0
  7  8  1  0
  8  9  2  0
  2 10  1  0
 10 11  1  0
 11 12  1  0
 12 13  1  0
 12 14  1  0
 12 15  1  0
 10 16  1  0
 16 17  1  0
 17 18  2  0
 18 19  1  0
 19 20  1  0
 20 21  1  0
 20 22  1  0
 22 23  1  0
 22 24  1  0
 22 25  1  0
 20 26  1  0
 26 27  1  0
 26 28  1  0
 26 29  1  0
 19 30  2  0
 30 31  1  0
  9  4  1  0
 31 16  2  0
  5 32  1  0
  6 33  1  0
  7 34  1  0
  8 35  1  0
  9 36  1  0
 11 37  1  0
 11 38  1  0
 17 39  1  0
 18 40  1  0
 21 41  1  0
 30 42  1  0
 31 43  1  0
M  END
>  <QED>  (31) 
0.627

>  <MW>  (31) 
481.3

$$$$
CHEMBL3317843
     RDKit          3D

 58 60  0  0  0  0  0  0  0  0999 V2000
    7.8094    2.1204   -0.5703 C   0  0  0  0  0  0  0  0  0  0  0  0
    6.8119    2.1553    0.5602 C   0  0  0  0  0  0  0  0  0  0  0  0
    7.0656    2.7710    1.5952 O   0  0  0  0  0  0  0  0  0  0  0  0
    5.6280    1.4650    0.3727 N   0  0  0  0  0  0  0  0  0  0  0  0
    4.5992    1.5124    1.4136 C   0  0  0  0  0  0  0  0  0  0  0  0
    3.1697    1.4745    0.8430 C   0  0  0  0  0  0  0  0  0  0  0  0
    2.9606    0.3264   -0.0623 N   0  0  0  0  0  0  0  0  0  0  0  0
    1.6991   -0.2349   -0.1990 C   0  0  0  0  0  0  0  0  0  0  0  0
    1.5108   -1.5744   -0.5729 C   0  0  0  0  0  0  0  0  0  0  0  0
    0.2344   -2.1379   -0.7147 C   0  0  0  0  0  0  0  0  0  0  0  0
   -0.9108   -1.3729   -0.4846 C   0  0  0  0  0  0  0  0  0  0  0  0
   -2.2865   -1.9749   -0.6578 C   0  0  0  0  0  0  0  0  0  0  0  0
   -3.2192   -1.6934    0.4679 N   0  0  0  0  0  0  0  0  0  0  0  0
   -2.7450   -2.2302    1.8079 C   0  0  0  0  0  0  0  0  0  0  0  0
   -2.8014   -3.7490    2.0132 C   0  0  0  0  0  0  0  0  0  0  0  0
   -2.1038   -4.4075    1.0593 F   0  0  0  0  0  0  0  0  0  0  0  0
   -4.0554   -4.2373    2.0303 F   0  0  0  0  0  0  0  0  0  0  0  0
   -2.2334   -4.0709    3.2030 F   0  0  0  0  0  0  0  0  0  0  0  0
   -4.8511   -2.0352    0.1382 S   0  0  0  0  0  0  0  0  0  0  0  0
   -5.5852   -1.8484    1.3731 O   0  0  0  0  0  0  0  0  0  0  0  0
   -4.8751   -3.3132   -0.5426 O   0  0  0  0  0  0  0  0  0  0  0  0
   -5.3692   -0.7675   -1.0356 C   0  0  0  0  0  0  0  0  0  0  0  0
   -4.9023    0.6111   -0.6432 C   0  0  0  0  0  0  0  0  0  0  0  0
   -4.0449    1.3278   -1.4935 C   0  0  0  0  0  0  0  0  0  0  0  0
   -3.6248    2.6172   -1.1608 C   0  0  0  0  0  0  0  0  0  0  0  0
   -4.0624    3.2101    0.0205 C   0  0  0  0  0  0  0  0  0  0  0  0
   -4.9275    2.5183    0.8646 C   0  0  0  0  0  0  0  0  0  0  0  0
   -5.3520    1.2305    0.5318 C   0  0  0  0  0  0  0  0  0  0  0  0
   -0.7469   -0.0337   -0.1237 C   0  0  0  0  0  0  0  0  0  0  0  0
    0.5336    0.5176    0.0161 C   0  0  0  0  0  0  0  0  0  0  0  0
    4.1614   -0.3329   -0.5975 C   0  0  0  0  0  0  0  0  0  0  0  0
    5.3049    0.6759   -0.8199 C   0  0  0  0  0  0  0  0  0  0  0  0
    8.2645    1.1288   -0.6344 H   0  0  0  0  0  0  0  0  0  0  0  0
    8.5982    2.8542   -0.3783 H   0  0  0  0  0  0  0  0  0  0  0  0
    7.3309    2.3837   -1.5171 H   0  0  0  0  0  0  0  0  0  0  0  0
    4.7233    2.4065    2.0339 H   0  0  0  0  0  0  0  0  0  0  0  0
    4.7662    0.6405    2.0580 H   0  0  0  0  0  0  0  0  0  0  0  0
    2.9772    2.3984    0.2843 H   0  0  0  0  0  0  0  0  0  0  0  0
    2.4781    1.4376    1.6935 H   0  0  0  0  0  0  0  0  0  0  0  0
    2.3625   -2.2271   -0.7425 H   0  0  0  0  0  0  0  0  0  0  0  0
    0.1531   -3.1852   -1.0000 H   0  0  0  0  0  0  0  0  0  0  0  0
   -2.6916   -1.5582   -1.5868 H   0  0  0  0  0  0  0  0  0  0  0  0
   -2.2060   -3.0566   -0.8082 H   0  0  0  0  0  0  0  0  0  0  0  0
   -1.7152   -1.8980    1.9766 H   0  0  0  0  0  0  0  0  0  0  0  0
   -3.3286   -1.7370    2.5945 H   0  0  0  0  0  0  0  0  0  0  0  0
   -6.4625   -0.7987   -1.0879 H   0  0  0  0  0  0  0  0  0  0  0  0
   -4.9779   -1.0602   -2.0153 H   0  0  0  0  0  0  0  0  0  0  0  0
   -3.6932    0.8902   -2.4257 H   0  0  0  0  0  0  0  0  0  0  0  0
   -2.9571    3.1599   -1.8254 H   0  0  0  0  0  0  0  0  0  0  0  0
   -3.7367    4.2140    0.2801 H   0  0  0  0  0  0  0  0  0  0  0  0
   -5.2785    2.9830    1.7828 H   0  0  0  0  0  0  0  0  0  0  0  0
   -6.0393    0.7187    1.2041 H   0  0  0  0  0  0  0  0  0  0  0  0
   -1.6144    0.5958    0.0628 H   0  0  0  0  0  0  0  0  0  0  0  0
    0.5975    1.5701    0.2794 H   0  0  0  0  0  0  0  0  0  0  0  0
    3.9514   -0.8060   -1.5641 H   0  0  0  0  0  0  0  0  0  0  0  0
    4.4876   -1.1117    0.1027 H   0  0  0  0  0  0  0  0  0  0  0  0
    6.1992    0.1464   -1.1630 H   0  0  0  0  0  0  0  0  0  0  0  0
    5.0197    1.3917   -1.6005 H   0  0  0  0  0  0  0  0  0  0  0  0
  1  2  1  0
  2  3  2  0
  2  4  1  0
  4  5  1  0
  5  6  1  0
  6  7  1  0
  7  8  1  0
  8  9  1  0
  9 10  2  0
 10 11  1  0
 11 12  1  0
 12 13  1  0
 13 14  1  0
 14 15  1  0
 15 16  1  0
 15 17  1  0
 15 18  1  0
 13 19  1  0
 19 20  2  0
 19 21  2  0
 19 22  1  0
 22 23  1  0
 23 24  2  0
 24 25  1  0
 25 26  2  0
 26 27  1  0
 27 28  2  0
 11 29  2  0
 29 30  1  0
  7 31  1  0
 31 32  1  0
 32  4  1  0
 30  8  2  0
 28 23  1  0
  1 33  1  0
  1 34  1  0
  1 35  1  0
  5 36  1  0
  5 37  1  0
  6 38  1  0
  6 39  1  0
  9 40  1  0
 10 41  1  0
 12 42  1  0
 12 43  1  0
 14 44  1  0
 14 45  1  0
 22 46  1  0
 22 47  1  0
 24 48  1  0
 25 49  1  0
 26 50  1  0
 27 51  1  0
 28 52  1  0
 29 53  1  0
 30 54  1  0
 31 55  1  0
 31 56  1  0
 32 57  1  0
 32 58  1  0
M  END
>  <QED>  (32) 
0.625

>  <MW>  (32) 
469.5

$$$$
CHEMBL3581546
     RDKit          3D

 63 66  0  0  0  0  0  0  0  0999 V2000
   -7.6773    3.0844    0.9036 C   0  0  0  0  0  0  0  0  0  0  0  0
   -6.9241    1.9389    0.5252 O   0  0  0  0  0  0  0  0  0  0  0  0
   -5.7224    1.7540    1.1507 C   0  0  0  0  0  0  0  0  0  0  0  0
   -5.1341    2.6235    2.0732 C   0  0  0  0  0  0  0  0  0  0  0  0
   -3.8925    2.3181    2.6431 C   0  0  0  0  0  0  0  0  0  0  0  0
   -3.2285    1.1445    2.2927 C   0  0  0  0  0  0  0  0  0  0  0  0
   -3.8143    0.2839    1.3640 C   0  0  0  0  0  0  0  0  0  0  0  0
   -2.9942   -1.2182    0.8906 S   0  0  0  0  0  0  0  0  0  0  0  0
   -1.7450   -1.3018    1.6157 O   0  0  0  0  0  0  0  0  0  0  0  0
   -3.9804   -2.2720    1.0019 O   0  0  0  0  0  0  0  0  0  0  0  0
   -2.6489   -0.9492   -0.7576 N   0  0  0  0  0  0  0  0  0  0  0  0
   -1.7404    0.1838   -1.0774 C   0  0  0  0  0  0  0  0  0  0  0  0
   -0.2743   -0.0439   -0.8204 C   0  0  0  0  0  0  0  0  0  0  0  0
    0.4844   -0.9334   -1.5845 C   0  0  0  0  0  0  0  0  0  0  0  0
    1.8479   -1.1164   -1.3167 C   0  0  0  0  0  0  0  0  0  0  0  0
    2.5039   -0.4235   -0.2854 C   0  0  0  0  0  0  0  0  0  0  0  0
    3.8684   -0.6500   -0.0648 N   0  0  0  0  0  0  0  0  0  0  0  0
    4.7202   -0.2908   -1.2251 C   0  0  0  0  0  0  0  0  0  0  0  0
    6.2072   -0.1525   -0.8443 C   0  0  0  0  0  0  0  0  0  0  0  0
    6.4227    0.7841    0.2672 N   0  0  0  0  0  0  0  0  0  0  0  0
    7.5615    1.5448    0.4585 C   0  0  0  0  0  0  0  0  0  0  0  0
    8.6873    1.3567   -0.5260 C   0  0  0  0  0  0  0  0  0  0  0  0
    7.6708    2.3502    1.3829 O   0  0  0  0  0  0  0  0  0  0  0  0
    5.3379    0.8805    1.2519 C   0  0  0  0  0  0  0  0  0  0  0  0
    4.4502   -0.3729    1.2665 C   0  0  0  0  0  0  0  0  0  0  0  0
    1.7363    0.4719    0.4650 C   0  0  0  0  0  0  0  0  0  0  0  0
    0.3787    0.6562    0.1948 C   0  0  0  0  0  0  0  0  0  0  0  0
   -0.2992    1.5519    0.9287 F   0  0  0  0  0  0  0  0  0  0  0  0
   -2.7688   -1.9726   -1.8509 C   0  0  0  0  0  0  0  0  0  0  0  0
   -2.3055   -3.4248   -1.5729 C   0  0  0  0  0  0  0  0  0  0  0  0
   -3.4643   -3.8947   -2.4752 C   0  0  0  0  0  0  0  0  0  0  0  0
   -4.1693   -2.5609   -2.1564 C   0  0  0  0  0  0  0  0  0  0  0  0
   -5.0583    0.5787    0.7981 C   0  0  0  0  0  0  0  0  0  0  0  0
   -8.6168    3.0668    0.3430 H   0  0  0  0  0  0  0  0  0  0  0  0
   -7.1495    4.0069    0.6399 H   0  0  0  0  0  0  0  0  0  0  0  0
   -7.9251    3.0609    1.9700 H   0  0  0  0  0  0  0  0  0  0  0  0
   -5.6157    3.5487    2.3729 H   0  0  0  0  0  0  0  0  0  0  0  0
   -3.4436    2.9991    3.3627 H   0  0  0  0  0  0  0  0  0  0  0  0
   -2.2632    0.9138    2.7384 H   0  0  0  0  0  0  0  0  0  0  0  0
   -2.0848    1.0817   -0.5525 H   0  0  0  0  0  0  0  0  0  0  0  0
   -1.8631    0.4542   -2.1350 H   0  0  0  0  0  0  0  0  0  0  0  0
    0.0330   -1.5004   -2.3930 H   0  0  0  0  0  0  0  0  0  0  0  0
    2.3986   -1.8423   -1.9112 H   0  0  0  0  0  0  0  0  0  0  0  0
    4.6294   -1.0540   -2.0064 H   0  0  0  0  0  0  0  0  0  0  0  0
    4.3868    0.6677   -1.6461 H   0  0  0  0  0  0  0  0  0  0  0  0
    6.7774    0.1632   -1.7225 H   0  0  0  0  0  0  0  0  0  0  0  0
    6.6045   -1.1220   -0.5206 H   0  0  0  0  0  0  0  0  0  0  0  0
    9.5833    1.8604   -0.1503 H   0  0  0  0  0  0  0  0  0  0  0  0
    8.4176    1.7986   -1.4885 H   0  0  0  0  0  0  0  0  0  0  0  0
    8.9240    0.2960   -0.6431 H   0  0  0  0  0  0  0  0  0  0  0  0
    4.7468    1.7653    0.9879 H   0  0  0  0  0  0  0  0  0  0  0  0
    5.7613    1.0471    2.2485 H   0  0  0  0  0  0  0  0  0  0  0  0
    5.0703   -1.2386    1.5339 H   0  0  0  0  0  0  0  0  0  0  0  0
    3.6934   -0.3046    2.0555 H   0  0  0  0  0  0  0  0  0  0  0  0
    2.1682    1.0685    1.2600 H   0  0  0  0  0  0  0  0  0  0  0  0
   -2.3272   -1.5942   -2.7850 H   0  0  0  0  0  0  0  0  0  0  0  0
   -2.3970   -3.7616   -0.5354 H   0  0  0  0  0  0  0  0  0  0  0  0
   -1.3048   -3.6793   -1.9324 H   0  0  0  0  0  0  0  0  0  0  0  0
   -3.9852   -4.7979   -2.1482 H   0  0  0  0  0  0  0  0  0  0  0  0
   -3.1847   -4.0039   -3.5293 H   0  0  0  0  0  0  0  0  0  0  0  0
   -4.6969   -2.1009   -2.9970 H   0  0  0  0  0  0  0  0  0  0  0  0
   -4.8587   -2.6210   -1.3097 H   0  0  0  0  0  0  0  0  0  0  0  0
   -5.5137   -0.1063    0.0862 H   0  0  0  0  0  0  0  0  0  0  0  0
  1  2  1  0
  2  3  1  0
  3  4  1  0
  4  5  2  0
  5  6  1  0
  6  7  2  0
  7  8  1  0
  8  9  2  0
  8 10  2  0
  8 11  1  0
 11 12  1  0
 12 13  1  0
 13 14  1  0
 14 15  2  0
 15 16  1  0
 16 17  1  0
 17 18  1  0
 18 19  1  0
 19 20  1  0
 20 21  1  0
 21 22  1  0
 21 23  2  0
 20 24  1  0
 24 25  1  0
 16 26  2  0
 26 27  1  0
 27 28  1  0
 11 29  1  0
 29 30  1  0
 30 31  1  0
 31 32  1  0
  7 33  1  0
 33  3  2  0
 27 13  2  0
 32 29  1  0
 25 17  1  0
  1 34  1  0
  1 35  1  0
  1 36  1  0
  4 37  1  0
  5 38  1  0
  6 39  1  0
 12 40  1  0
 12 41  1  0
 14 42  1  0
 15 43  1  0
 18 44  1  0
 18 45  1  0
 19 46  1  0
 19 47  1  0
 22 48  1  0
 22 49  1  0
 22 50  1  0
 24 51  1  0
 24 52  1  0
 25 53  1  0
 25 54  1  0
 26 55  1  0
 29 56  1  0
 30 57  1  0
 30 58  1  0
 31 59  1  0
 31 60  1  0
 32 61  1  0
 32 62  1  0
 33 63  1  0
M  END
>  <QED>  (33) 
0.615

>  <MW>  (33) 
475.6

$$$$
CHEMBL3581535
     RDKit          3D

 62 65  0  0  0  0  0  0  0  0999 V2000
   -8.4980    1.3102    1.0985 C   0  0  0  0  0  0  0  0  0  0  0  0
   -7.7588    0.0086    1.2817 C   0  0  0  0  0  0  0  0  0  0  0  0
   -8.3557   -0.9984    1.6613 O   0  0  0  0  0  0  0  0  0  0  0  0
   -6.4020    0.0148    1.0121 N   0  0  0  0  0  0  0  0  0  0  0  0
   -5.6391    1.2007    0.6112 C   0  0  0  0  0  0  0  0  0  0  0  0
   -4.1188    1.0485    0.8125 C   0  0  0  0  0  0  0  0  0  0  0  0
   -3.6054   -0.1573    0.1420 N   0  0  0  0  0  0  0  0  0  0  0  0
   -2.2671   -0.2856   -0.2013 C   0  0  0  0  0  0  0  0  0  0  0  0
   -1.8325   -1.2722   -1.1036 C   0  0  0  0  0  0  0  0  0  0  0  0
   -0.4852   -1.4155   -1.4671 C   0  0  0  0  0  0  0  0  0  0  0  0
    0.4876   -0.5709   -0.9284 C   0  0  0  0  0  0  0  0  0  0  0  0
    1.9372   -0.7006   -1.3124 C   0  0  0  0  0  0  0  0  0  0  0  0
    2.8674   -0.9827   -0.1792 N   0  0  0  0  0  0  0  0  0  0  0  0
    2.8277   -2.3902    0.3886 C   0  0  0  0  0  0  0  0  0  0  0  0
    1.6463   -2.8193    1.2924 C   0  0  0  0  0  0  0  0  0  0  0  0
    1.8619   -4.2535    0.7631 C   0  0  0  0  0  0  0  0  0  0  0  0
    2.4970   -3.6192   -0.4931 C   0  0  0  0  0  0  0  0  0  0  0  0
    4.3808   -0.1619   -0.3292 S   0  0  0  0  0  0  0  0  0  0  0  0
    5.2472   -0.6618    0.7197 O   0  0  0  0  0  0  0  0  0  0  0  0
    4.7635   -0.2494   -1.7243 O   0  0  0  0  0  0  0  0  0  0  0  0
    3.9151    1.5311    0.0760 C   0  0  0  0  0  0  0  0  0  0  0  0
    5.1400    2.4093    0.0177 C   0  0  0  0  0  0  0  0  0  0  0  0
    5.9642    2.5633    1.1443 C   0  0  0  0  0  0  0  0  0  0  0  0
    7.1011    3.3744    1.0904 C   0  0  0  0  0  0  0  0  0  0  0  0
    7.4263    4.0402   -0.0893 C   0  0  0  0  0  0  0  0  0  0  0  0
    6.6152    3.8858   -1.2064 C   0  0  0  0  0  0  0  0  0  0  0  0
    6.9277    4.5248   -2.3415 F   0  0  0  0  0  0  0  0  0  0  0  0
    5.4817    3.0791   -1.1659 C   0  0  0  0  0  0  0  0  0  0  0  0
    0.0648    0.4243   -0.0510 C   0  0  0  0  0  0  0  0  0  0  0  0
    0.9555    1.2839    0.4649 F   0  0  0  0  0  0  0  0  0  0  0  0
   -1.2779    0.5661    0.3075 C   0  0  0  0  0  0  0  0  0  0  0  0
   -4.5035   -1.3301    0.0903 C   0  0  0  0  0  0  0  0  0  0  0  0
   -5.6462   -1.2346    1.1177 C   0  0  0  0  0  0  0  0  0  0  0  0
   -8.2790    1.7455    0.1202 H   0  0  0  0  0  0  0  0  0  0  0  0
   -9.5751    1.1236    1.1486 H   0  0  0  0  0  0  0  0  0  0  0  0
   -8.2279    2.0068    1.8962 H   0  0  0  0  0  0  0  0  0  0  0  0
   -5.9970    2.0728    1.1671 H   0  0  0  0  0  0  0  0  0  0  0  0
   -5.8565    1.3681   -0.4507 H   0  0  0  0  0  0  0  0  0  0  0  0
   -3.8925    0.9889    1.8842 H   0  0  0  0  0  0  0  0  0  0  0  0
   -3.6443    1.9516    0.4108 H   0  0  0  0  0  0  0  0  0  0  0  0
   -2.5500   -1.9444   -1.5687 H   0  0  0  0  0  0  0  0  0  0  0  0
   -0.2137   -2.1947   -2.1763 H   0  0  0  0  0  0  0  0  0  0  0  0
    2.0708   -1.4600   -2.0908 H   0  0  0  0  0  0  0  0  0  0  0  0
    2.1980    0.2444   -1.8037 H   0  0  0  0  0  0  0  0  0  0  0  0
    3.7661   -2.5731    0.9337 H   0  0  0  0  0  0  0  0  0  0  0  0
    0.6657   -2.4106    1.0405 H   0  0  0  0  0  0  0  0  0  0  0  0
    1.8072   -2.6905    2.3666 H   0  0  0  0  0  0  0  0  0  0  0  0
    2.5638   -4.8447    1.3624 H   0  0  0  0  0  0  0  0  0  0  0  0
    0.9549   -4.8390    0.5938 H   0  0  0  0  0  0  0  0  0  0  0  0
    1.7721   -3.4678   -1.2971 H   0  0  0  0  0  0  0  0  0  0  0  0
    3.3613   -4.1515   -0.8996 H   0  0  0  0  0  0  0  0  0  0  0  0
    3.1666    1.8779   -0.6400 H   0  0  0  0  0  0  0  0  0  0  0  0
    3.4825    1.5320    1.0811 H   0  0  0  0  0  0  0  0  0  0  0  0
    5.7337    2.0401    2.0717 H   0  0  0  0  0  0  0  0  0  0  0  0
    7.7349    3.4800    1.9675 H   0  0  0  0  0  0  0  0  0  0  0  0
    8.3071    4.6712   -0.1470 H   0  0  0  0  0  0  0  0  0  0  0  0
    4.8819    2.9779   -2.0662 H   0  0  0  0  0  0  0  0  0  0  0  0
   -1.5176    1.3532    1.0141 H   0  0  0  0  0  0  0  0  0  0  0  0
   -4.9271   -1.3994   -0.9189 H   0  0  0  0  0  0  0  0  0  0  0  0
   -3.9544   -2.2568    0.2962 H   0  0  0  0  0  0  0  0  0  0  0  0
   -5.2363   -1.2671    2.1348 H   0  0  0  0  0  0  0  0  0  0  0  0
   -6.3131   -2.0961    1.0059 H   0  0  0  0  0  0  0  0  0  0  0  0
  1  2  1  0
  2  3  2  0
  2  4  1  0
  4  5  1  0
  5  6  1  0
  6  7  1  0
  7  8  1  0
  8  9  1  0
  9 10  2  0
 10 11  1  0
 11 12  1  0
 12 13  1  0
 13 14  1  0
 14 15  1  0
 15 16  1  0
 16 17  1  0
 13 18  1  0
 18 19  2  0
 18 20  2  0
 18 21  1  0
 21 22  1  0
 22 23  2  0
 23 24  1  0
 24 25  2  0
 25 26  1  0
 26 27  1  0
 26 28  2  0
 11 29  2  0
 29 30  1  0
 29 31  1  0
  7 32  1  0
 32 33  1  0
 33  4  1  0
 31  8  2  0
 17 14  1  0
 28 22  1  0
  1 34  1  0
  1 35  1  0
  1 36  1  0
  5 37  1  0
  5 38  1  0
  6 39  1  0
  6 40  1  0
  9 41  1  0
 10 42  1  0
 12 43  1  0
 12 44  1  0
 14 45  1  0
 15 46  1  0
 15 47  1  0
 16 48  1  0
 16 49  1  0
 17 50  1  0
 17 51  1  0
 21 52  1  0
 21 53  1  0
 23 54  1  0
 24 55  1  0
 25 56  1  0
 28 57  1  0
 31 58  1  0
 32 59  1  0
 32 60  1  0
 33 61  1  0
 33 62  1  0
M  END
>  <QED>  (34) 
0.612

>  <MW>  (34) 
477.6

$$$$
CHEMBL3581533
     RDKit          3D

 62 65  0  0  0  0  0  0  0  0999 V2000
   -8.7930   -0.8722   -1.8135 C   0  0  0  0  0  0  0  0  0  0  0  0
   -7.5946   -1.7470   -2.0829 C   0  0  0  0  0  0  0  0  0  0  0  0
   -7.6972   -2.7378   -2.8056 O   0  0  0  0  0  0  0  0  0  0  0  0
   -6.4045   -1.3841   -1.4783 N   0  0  0  0  0  0  0  0  0  0  0  0
   -6.2475   -0.2508   -0.5618 C   0  0  0  0  0  0  0  0  0  0  0  0
   -4.9955   -0.3535    0.3309 C   0  0  0  0  0  0  0  0  0  0  0  0
   -3.7767   -0.5531   -0.4689 N   0  0  0  0  0  0  0  0  0  0  0  0
   -2.5235   -0.2037    0.0111 C   0  0  0  0  0  0  0  0  0  0  0  0
   -1.4175   -0.0688   -0.8453 C   0  0  0  0  0  0  0  0  0  0  0  0
   -0.1435    0.2864   -0.3767 C   0  0  0  0  0  0  0  0  0  0  0  0
    0.0750    0.5141    0.9826 C   0  0  0  0  0  0  0  0  0  0  0  0
    1.4256    0.9136    1.5178 C   0  0  0  0  0  0  0  0  0  0  0  0
    2.5520    0.0086    1.1656 N   0  0  0  0  0  0  0  0  0  0  0  0
    2.3207   -1.4523    1.4312 C   0  0  0  0  0  0  0  0  0  0  0  0
    3.5540   -2.2952    1.8655 C   0  0  0  0  0  0  0  0  0  0  0  0
    2.5993   -3.1149    2.7515 C   0  0  0  0  0  0  0  0  0  0  0  0
    1.6971   -1.8688    2.7947 C   0  0  0  0  0  0  0  0  0  0  0  0
    3.7106    0.6199    0.0777 S   0  0  0  0  0  0  0  0  0  0  0  0
    4.5473   -0.4895   -0.3335 O   0  0  0  0  0  0  0  0  0  0  0  0
    3.0123    1.4256   -0.9015 O   0  0  0  0  0  0  0  0  0  0  0  0
    4.6671    1.6725    1.1784 C   0  0  0  0  0  0  0  0  0  0  0  0
    5.7064    2.4012    0.3751 C   0  0  0  0  0  0  0  0  0  0  0  0
    6.9387    1.8086    0.0663 C   0  0  0  0  0  0  0  0  0  0  0  0
    7.8816    2.5001   -0.6986 C   0  0  0  0  0  0  0  0  0  0  0  0
    7.6040    3.7863   -1.1627 C   0  0  0  0  0  0  0  0  0  0  0  0
    6.3810    4.3826   -0.8631 C   0  0  0  0  0  0  0  0  0  0  0  0
    5.4460    3.6884   -0.1020 C   0  0  0  0  0  0  0  0  0  0  0  0
    4.2776    4.2792    0.1862 F   0  0  0  0  0  0  0  0  0  0  0  0
   -1.0189    0.4019    1.8371 C   0  0  0  0  0  0  0  0  0  0  0  0
   -0.8641    0.6250    3.1509 F   0  0  0  0  0  0  0  0  0  0  0  0
   -2.2871    0.0495    1.3685 C   0  0  0  0  0  0  0  0  0  0  0  0
   -3.9149   -1.3065   -1.7317 C   0  0  0  0  0  0  0  0  0  0  0  0
   -5.1953   -2.1611   -1.7585 C   0  0  0  0  0  0  0  0  0  0  0  0
   -8.5498    0.1801   -1.9809 H   0  0  0  0  0  0  0  0  0  0  0  0
   -9.1428   -1.0259   -0.7895 H   0  0  0  0  0  0  0  0  0  0  0  0
   -9.5993   -1.1430   -2.5020 H   0  0  0  0  0  0  0  0  0  0  0  0
   -7.1383   -0.1589    0.0671 H   0  0  0  0  0  0  0  0  0  0  0  0
   -6.1843    0.6490   -1.1857 H   0  0  0  0  0  0  0  0  0  0  0  0
   -5.1079   -1.1923    1.0286 H   0  0  0  0  0  0  0  0  0  0  0  0
   -4.9349    0.5726    0.9148 H   0  0  0  0  0  0  0  0  0  0  0  0
   -1.5287   -0.2127   -1.9176 H   0  0  0  0  0  0  0  0  0  0  0  0
    0.6693    0.3860   -1.0935 H   0  0  0  0  0  0  0  0  0  0  0  0
    1.6262    1.9401    1.1883 H   0  0  0  0  0  0  0  0  0  0  0  0
    1.4022    0.9776    2.6128 H   0  0  0  0  0  0  0  0  0  0  0  0
    1.8005   -1.9109    0.5784 H   0  0  0  0  0  0  0  0  0  0  0  0
    4.3083   -1.7360    2.4319 H   0  0  0  0  0  0  0  0  0  0  0  0
    4.0506   -2.8603    1.0724 H   0  0  0  0  0  0  0  0  0  0  0  0
    2.1463   -3.9714    2.2393 H   0  0  0  0  0  0  0  0  0  0  0  0
    3.0040   -3.4446    3.7113 H   0  0  0  0  0  0  0  0  0  0  0  0
    1.9268   -1.1948    3.6283 H   0  0  0  0  0  0  0  0  0  0  0  0
    0.6238   -2.0746    2.7883 H   0  0  0  0  0  0  0  0  0  0  0  0
    5.1316    1.0370    1.9388 H   0  0  0  0  0  0  0  0  0  0  0  0
    3.9860    2.3717    1.6715 H   0  0  0  0  0  0  0  0  0  0  0  0
    7.1684    0.7991    0.4043 H   0  0  0  0  0  0  0  0  0  0  0  0
    8.8323    2.0299   -0.9405 H   0  0  0  0  0  0  0  0  0  0  0  0
    8.3379    4.3194   -1.7617 H   0  0  0  0  0  0  0  0  0  0  0  0
    6.1481    5.3807   -1.2202 H   0  0  0  0  0  0  0  0  0  0  0  0
   -3.0768   -0.0410    2.1062 H   0  0  0  0  0  0  0  0  0  0  0  0
   -3.9358   -0.5930   -2.5644 H   0  0  0  0  0  0  0  0  0  0  0  0
   -3.0654   -1.9839   -1.8806 H   0  0  0  0  0  0  0  0  0  0  0  0
   -5.2815   -2.6637   -2.7278 H   0  0  0  0  0  0  0  0  0  0  0  0
   -5.1392   -2.9402   -0.9883 H   0  0  0  0  0  0  0  0  0  0  0  0
  1  2  1  0
  2  3  2  0
  2  4  1  0
  4  5  1  0
  5  6  1  0
  6  7  1  0
  7  8  1  0
  8  9  1  0
  9 10  2  0
 10 11  1  0
 11 12  1  0
 12 13  1  0
 13 14  1  0
 14 15  1  0
 15 16  1  0
 16 17  1  0
 13 18  1  0
 18 19  2  0
 18 20  2  0
 18 21  1  0
 21 22  1  0
 22 23  2  0
 23 24  1  0
 24 25  2  0
 25 26  1  0
 26 27  2  0
 27 28  1  0
 11 29  2  0
 29 30  1  0
 29 31  1  0
  7 32  1  0
 32 33  1  0
 33  4  1  0
 31  8  2  0
 17 14  1  0
 27 22  1  0
  1 34  1  0
  1 35  1  0
  1 36  1  0
  5 37  1  0
  5 38  1  0
  6 39  1  0
  6 40  1  0
  9 41  1  0
 10 42  1  0
 12 43  1  0
 12 44  1  0
 14 45  1  0
 15 46  1  0
 15 47  1  0
 16 48  1  0
 16 49  1  0
 17 50  1  0
 17 51  1  0
 21 52  1  0
 21 53  1  0
 23 54  1  0
 24 55  1  0
 25 56  1  0
 26 57  1  0
 31 58  1  0
 32 59  1  0
 32 60  1  0
 33 61  1  0
 33 62  1  0
M  END
>  <QED>  (35) 
0.612

>  <MW>  (35) 
477.6

$$$$
CHEMBL3581537
     RDKit          3D

 62 65  0  0  0  0  0  0  0  0999 V2000
   -8.9643   -0.2714    0.3204 C   0  0  0  0  0  0  0  0  0  0  0  0
   -8.1729    0.8858    0.8761 C   0  0  0  0  0  0  0  0  0  0  0  0
   -8.7473    1.8281    1.4209 O   0  0  0  0  0  0  0  0  0  0  0  0
   -6.7981    0.8306    0.7343 N   0  0  0  0  0  0  0  0  0  0  0  0
   -5.9764    1.8990    1.3059 C   0  0  0  0  0  0  0  0  0  0  0  0
   -4.6139    1.3961    1.8165 C   0  0  0  0  0  0  0  0  0  0  0  0
   -3.8701    0.6527    0.7794 N   0  0  0  0  0  0  0  0  0  0  0  0
   -2.4831    0.6219    0.7922 C   0  0  0  0  0  0  0  0  0  0  0  0
   -1.7284    0.4040   -0.3727 C   0  0  0  0  0  0  0  0  0  0  0  0
   -0.3263    0.3629   -0.3597 C   0  0  0  0  0  0  0  0  0  0  0  0
    0.3770    0.5268    0.8349 C   0  0  0  0  0  0  0  0  0  0  0  0
    1.8809    0.5087    0.8721 C   0  0  0  0  0  0  0  0  0  0  0  0
    2.4741   -0.6604    0.1585 N   0  0  0  0  0  0  0  0  0  0  0  0
    2.6833   -1.8491    1.0636 C   0  0  0  0  0  0  0  0  0  0  0  0
    1.4511   -2.4503    1.7967 C   0  0  0  0  0  0  0  0  0  0  0  0
    2.1240   -3.8275    1.6434 C   0  0  0  0  0  0  0  0  0  0  0  0
    2.8336   -3.2477    0.4050 C   0  0  0  0  0  0  0  0  0  0  0  0
    3.5418   -0.2632   -1.1212 S   0  0  0  0  0  0  0  0  0  0  0  0
    3.9039   -1.5013   -1.7792 O   0  0  0  0  0  0  0  0  0  0  0  0
    2.9375    0.8275   -1.8592 O   0  0  0  0  0  0  0  0  0  0  0  0
    4.9716    0.3475   -0.2111 C   0  0  0  0  0  0  0  0  0  0  0  0
    6.0429    0.7642   -1.1869 C   0  0  0  0  0  0  0  0  0  0  0  0
    6.9999   -0.1626   -1.6319 C   0  0  0  0  0  0  0  0  0  0  0  0
    7.9893    0.2238   -2.5372 C   0  0  0  0  0  0  0  0  0  0  0  0
    8.0222    1.5330   -3.0005 C   0  0  0  0  0  0  0  0  0  0  0  0
    8.9731    1.9025   -3.8684 F   0  0  0  0  0  0  0  0  0  0  0  0
    7.0811    2.4637   -2.5786 C   0  0  0  0  0  0  0  0  0  0  0  0
    6.0901    2.0809   -1.6735 C   0  0  0  0  0  0  0  0  0  0  0  0
   -0.3593    0.7538    1.9934 C   0  0  0  0  0  0  0  0  0  0  0  0
    0.2756    0.9287    3.1621 F   0  0  0  0  0  0  0  0  0  0  0  0
   -1.7550    0.7958    1.9783 C   0  0  0  0  0  0  0  0  0  0  0  0
   -4.6426    0.1448   -0.3659 C   0  0  0  0  0  0  0  0  0  0  0  0
   -6.0751   -0.2445    0.0479 C   0  0  0  0  0  0  0  0  0  0  0  0
   -9.9993   -0.2011    0.6689 H   0  0  0  0  0  0  0  0  0  0  0  0
   -8.9614   -0.2336   -0.7718 H   0  0  0  0  0  0  0  0  0  0  0  0
   -8.5571   -1.2230    0.6714 H   0  0  0  0  0  0  0  0  0  0  0  0
   -6.5116    2.3993    2.1200 H   0  0  0  0  0  0  0  0  0  0  0  0
   -5.8261    2.6381    0.5092 H   0  0  0  0  0  0  0  0  0  0  0  0
   -4.7696    0.7338    2.6766 H   0  0  0  0  0  0  0  0  0  0  0  0
   -4.0470    2.2715    2.1557 H   0  0  0  0  0  0  0  0  0  0  0  0
   -2.2157    0.2833   -1.3367 H   0  0  0  0  0  0  0  0  0  0  0  0
    0.2084    0.2021   -1.2950 H   0  0  0  0  0  0  0  0  0  0  0  0
    2.2275    1.4587    0.4498 H   0  0  0  0  0  0  0  0  0  0  0  0
    2.2472    0.5060    1.9065 H   0  0  0  0  0  0  0  0  0  0  0  0
    3.5098   -1.6400    1.7586 H   0  0  0  0  0  0  0  0  0  0  0  0
    0.5051   -2.3731    1.2489 H   0  0  0  0  0  0  0  0  0  0  0  0
    1.2979   -2.1141    2.8254 H   0  0  0  0  0  0  0  0  0  0  0  0
    2.8031   -4.0834    2.4647 H   0  0  0  0  0  0  0  0  0  0  0  0
    1.4522   -4.6691    1.4582 H   0  0  0  0  0  0  0  0  0  0  0  0
    2.2649   -3.3779   -0.5234 H   0  0  0  0  0  0  0  0  0  0  0  0
    3.8588   -3.5931    0.2484 H   0  0  0  0  0  0  0  0  0  0  0  0
    4.6588    1.1953    0.4048 H   0  0  0  0  0  0  0  0  0  0  0  0
    5.3307   -0.4543    0.4411 H   0  0  0  0  0  0  0  0  0  0  0  0
    6.9743   -1.1955   -1.2882 H   0  0  0  0  0  0  0  0  0  0  0  0
    8.7285   -0.4888   -2.8890 H   0  0  0  0  0  0  0  0  0  0  0  0
    7.1206    3.4782   -2.9624 H   0  0  0  0  0  0  0  0  0  0  0  0
    5.3492    2.8154   -1.3624 H   0  0  0  0  0  0  0  0  0  0  0  0
   -2.2573    0.9462    2.9282 H   0  0  0  0  0  0  0  0  0  0  0  0
   -4.6803    0.9165   -1.1446 H   0  0  0  0  0  0  0  0  0  0  0  0
   -4.1725   -0.7498   -0.7912 H   0  0  0  0  0  0  0  0  0  0  0  0
   -6.6385   -0.5604   -0.8356 H   0  0  0  0  0  0  0  0  0  0  0  0
   -6.0412   -1.0918    0.7436 H   0  0  0  0  0  0  0  0  0  0  0  0
  1  2  1  0
  2  3  2  0
  2  4  1  0
  4  5  1  0
  5  6  1  0
  6  7  1  0
  7  8  1  0
  8  9  1  0
  9 10  2  0
 10 11  1  0
 11 12  1  0
 12 13  1  0
 13 14  1  0
 14 15  1  0
 15 16  1  0
 16 17  1  0
 13 18  1  0
 18 19  2  0
 18 20  2  0
 18 21  1  0
 21 22  1  0
 22 23  1  0
 23 24  2  0
 24 25  1  0
 25 26  1  0
 25 27  2  0
 27 28  1  0
 11 29  2  0
 29 30  1  0
 29 31  1  0
  7 32  1  0
 32 33  1  0
 33  4  1  0
 31  8  2  0
 17 14  1  0
 28 22  2  0
  1 34  1  0
  1 35  1  0
  1 36  1  0
  5 37  1  0
  5 38  1  0
  6 39  1  0
  6 40  1  0
  9 41  1  0
 10 42  1  0
 12 43  1  0
 12 44  1  0
 14 45  1  0
 15 46  1  0
 15 47  1  0
 16 48  1  0
 16 49  1  0
 17 50  1  0
 17 51  1  0
 21 52  1  0
 21 53  1  0
 23 54  1  0
 24 55  1  0
 27 56  1  0
 28 57  1  0
 31 58  1  0
 32 59  1  0
 32 60  1  0
 33 61  1  0
 33 62  1  0
M  END
>  <QED>  (36) 
0.612

>  <MW>  (36) 
477.6

$$$$
CHEMBL3094367
     RDKit          3D

 44 45  0  0  0  0  0  0  0  0999 V2000
    5.1087    3.6404    2.4518 N   0  0  0  0  0  0  0  0  0  0  0  0
    4.6235    2.8262    1.7825 C   0  0  0  0  0  0  0  0  0  0  0  0
    4.0194    1.8144    0.9651 C   0  0  0  0  0  0  0  0  0  0  0  0
    4.4899    0.4957    1.0185 C   0  0  0  0  0  0  0  0  0  0  0  0
    3.9017   -0.4942    0.2264 C   0  0  0  0  0  0  0  0  0  0  0  0
    2.8304   -0.1617   -0.6086 C   0  0  0  0  0  0  0  0  0  0  0  0
    2.0914   -1.4124   -1.6494 S   0  0  0  0  0  0  0  0  0  0  0  0
    1.5306   -0.7319   -2.7972 O   0  0  0  0  0  0  0  0  0  0  0  0
    3.0806   -2.4573   -1.8098 O   0  0  0  0  0  0  0  0  0  0  0  0
    0.8318   -2.0219   -0.6802 N   0  0  0  0  0  0  0  0  0  0  0  0
    1.1762   -3.1120    0.2819 C   0  0  0  0  0  0  0  0  0  0  0  0
    0.8723   -4.4999   -0.2841 C   0  0  0  0  0  0  0  0  0  0  0  0
    1.5037   -4.7468   -1.4475 F   0  0  0  0  0  0  0  0  0  0  0  0
    1.2592   -5.4525    0.5994 F   0  0  0  0  0  0  0  0  0  0  0  0
   -0.4553   -4.6641   -0.4884 F   0  0  0  0  0  0  0  0  0  0  0  0
   -0.2569   -1.1456   -0.3703 C   0  0  0  0  0  0  0  0  0  0  0  0
   -1.2293   -0.9081   -1.3380 C   0  0  0  0  0  0  0  0  0  0  0  0
   -2.2733   -0.0110   -1.0891 C   0  0  0  0  0  0  0  0  0  0  0  0
   -2.3630    0.6790    0.1339 C   0  0  0  0  0  0  0  0  0  0  0  0
   -3.5034    1.6732    0.4060 C   0  0  0  0  0  0  0  0  0  0  0  0
   -3.3392    2.2049    1.7667 O   0  0  0  0  0  0  0  0  0  0  0  0
   -4.8894    1.0296    0.2824 C   0  0  0  0  0  0  0  0  0  0  0  0
   -5.8550    1.8986    0.6745 F   0  0  0  0  0  0  0  0  0  0  0  0
   -5.1949    0.6283   -0.9684 F   0  0  0  0  0  0  0  0  0  0  0  0
   -5.0061   -0.0538    1.0893 F   0  0  0  0  0  0  0  0  0  0  0  0
   -3.5082    2.8371   -0.5917 C   0  0  0  0  0  0  0  0  0  0  0  0
   -4.4280    3.7686   -0.2359 F   0  0  0  0  0  0  0  0  0  0  0  0
   -3.7813    2.4662   -1.8593 F   0  0  0  0  0  0  0  0  0  0  0  0
   -2.3115    3.4757   -0.6121 F   0  0  0  0  0  0  0  0  0  0  0  0
   -1.3625    0.4350    1.0930 C   0  0  0  0  0  0  0  0  0  0  0  0
   -0.3187   -0.4623    0.8431 C   0  0  0  0  0  0  0  0  0  0  0  0
    2.3717    1.1581   -0.6874 C   0  0  0  0  0  0  0  0  0  0  0  0
    2.9619    2.1431    0.1082 C   0  0  0  0  0  0  0  0  0  0  0  0
    5.3241    0.2349    1.6688 H   0  0  0  0  0  0  0  0  0  0  0  0
    4.2923   -1.5094    0.2581 H   0  0  0  0  0  0  0  0  0  0  0  0
    2.2326   -3.0544    0.5637 H   0  0  0  0  0  0  0  0  0  0  0  0
    0.6158   -2.9955    1.2162 H   0  0  0  0  0  0  0  0  0  0  0  0
   -1.1799   -1.4170   -2.2994 H   0  0  0  0  0  0  0  0  0  0  0  0
   -3.0059    0.1354   -1.8831 H   0  0  0  0  0  0  0  0  0  0  0  0
   -4.0778    2.8281    1.9224 H   0  0  0  0  0  0  0  0  0  0  0  0
   -1.3752    0.9483    2.0544 H   0  0  0  0  0  0  0  0  0  0  0  0
    0.4430   -0.6018    1.6052 H   0  0  0  0  0  0  0  0  0  0  0  0
    1.5583    1.4255   -1.3605 H   0  0  0  0  0  0  0  0  0  0  0  0
    2.5960    3.1674    0.0488 H   0  0  0  0  0  0  0  0  0  0  0  0
  1  2  3  0
  2  3  1  0
  3  4  1  0
  4  5  2  0
  5  6  1  0
  6  7  1  0
  7  8  2  0
  7  9  2  0
  7 10  1  0
 10 11  1  0
 11 12  1  0
 12 13  1  0
 12 14  1  0
 12 15  1  0
 10 16  1  0
 16 17  1  0
 17 18  2  0
 18 19  1  0
 19 20  1  0
 20 21  1  0
 20 22  1  0
 22 23  1  0
 22 24  1  0
 22 25  1  0
 20 26  1  0
 26 27  1  0
 26 28  1  0
 26 29  1  0
 19 30  2  0
 30 31  1  0
  6 32  2  0
 32 33  1  0
 33  3  2  0
 31 16  2  0
  4 34  1  0
  5 35  1  0
 11 36  1  0
 11 37  1  0
 17 38  1  0
 18 39  1  0
 21 40  1  0
 30 41  1  0
 31 42  1  0
 32 43  1  0
 33 44  1  0
M  END
>  <QED>  (37) 
0.6

>  <MW>  (37) 
506.3

$$$$
CHEMBL3094366
     RDKit          3D

 44 45  0  0  0  0  0  0  0  0999 V2000
    7.7341    1.9501   -0.1916 N   0  0  0  0  0  0  0  0  0  0  0  0
    6.8557    1.1954   -0.1199 C   0  0  0  0  0  0  0  0  0  0  0  0
    5.7641    0.2692   -0.0369 C   0  0  0  0  0  0  0  0  0  0  0  0
    5.9435   -1.0624   -0.4335 C   0  0  0  0  0  0  0  0  0  0  0  0
    4.8867   -1.9727   -0.3501 C   0  0  0  0  0  0  0  0  0  0  0  0
    3.6438   -1.5554    0.1234 C   0  0  0  0  0  0  0  0  0  0  0  0
    3.4632   -0.2214    0.5031 C   0  0  0  0  0  0  0  0  0  0  0  0
    1.8756    0.2852    1.1228 S   0  0  0  0  0  0  0  0  0  0  0  0
    1.9920    1.6581    1.5710 O   0  0  0  0  0  0  0  0  0  0  0  0
    1.4269   -0.7616    2.0154 O   0  0  0  0  0  0  0  0  0  0  0  0
    0.9086    0.2811   -0.2887 N   0  0  0  0  0  0  0  0  0  0  0  0
    1.2624    1.3157   -1.3312 C   0  0  0  0  0  0  0  0  0  0  0  0
    1.6479    0.6905   -2.6680 C   0  0  0  0  0  0  0  0  0  0  0  0
    1.9584    1.6539   -3.5663 F   0  0  0  0  0  0  0  0  0  0  0  0
    0.6446   -0.0451   -3.1936 F   0  0  0  0  0  0  0  0  0  0  0  0
    2.7301   -0.1095   -2.5481 F   0  0  0  0  0  0  0  0  0  0  0  0
   -0.5046    0.1487   -0.0460 C   0  0  0  0  0  0  0  0  0  0  0  0
   -1.2094    1.0466    0.7532 C   0  0  0  0  0  0  0  0  0  0  0  0
   -2.5937    0.9157    0.8969 C   0  0  0  0  0  0  0  0  0  0  0  0
   -3.3109   -0.1005    0.2315 C   0  0  0  0  0  0  0  0  0  0  0  0
   -4.8348   -0.1983    0.4313 C   0  0  0  0  0  0  0  0  0  0  0  0
   -5.0506   -0.0702    1.8740 O   0  0  0  0  0  0  0  0  0  0  0  0
   -5.4885   -1.4948   -0.0636 C   0  0  0  0  0  0  0  0  0  0  0  0
   -6.8042   -1.5627    0.2392 F   0  0  0  0  0  0  0  0  0  0  0  0
   -4.9088   -2.5683    0.5395 F   0  0  0  0  0  0  0  0  0  0  0  0
   -5.3721   -1.6839   -1.3953 F   0  0  0  0  0  0  0  0  0  0  0  0
   -5.5636    0.9068   -0.3452 C   0  0  0  0  0  0  0  0  0  0  0  0
   -6.9027    0.8783   -0.1591 F   0  0  0  0  0  0  0  0  0  0  0  0
   -5.1508    2.1441    0.0324 F   0  0  0  0  0  0  0  0  0  0  0  0
   -5.3451    0.8200   -1.6790 F   0  0  0  0  0  0  0  0  0  0  0  0
   -2.5846   -0.9713   -0.5974 C   0  0  0  0  0  0  0  0  0  0  0  0
   -1.1980   -0.8401   -0.7404 C   0  0  0  0  0  0  0  0  0  0  0  0
    4.5193    0.6932    0.4391 C   0  0  0  0  0  0  0  0  0  0  0  0
    6.9096   -1.4013   -0.8054 H   0  0  0  0  0  0  0  0  0  0  0  0
    5.0346   -3.0074   -0.6527 H   0  0  0  0  0  0  0  0  0  0  0  0
    2.8243   -2.2685    0.1950 H   0  0  0  0  0  0  0  0  0  0  0  0
    2.0988    1.9355   -0.9921 H   0  0  0  0  0  0  0  0  0  0  0  0
    0.4229    2.0043   -1.4844 H   0  0  0  0  0  0  0  0  0  0  0  0
   -0.7007    1.8530    1.2764 H   0  0  0  0  0  0  0  0  0  0  0  0
   -3.1138    1.6262    1.5418 H   0  0  0  0  0  0  0  0  0  0  0  0
   -4.5642   -0.8015    2.3010 H   0  0  0  0  0  0  0  0  0  0  0  0
   -3.0633   -1.7722   -1.1582 H   0  0  0  0  0  0  0  0  0  0  0  0
   -0.6631   -1.5267   -1.3933 H   0  0  0  0  0  0  0  0  0  0  0  0
    4.3803    1.7241    0.7614 H   0  0  0  0  0  0  0  0  0  0  0  0
  1  2  3  0
  2  3  1  0
  3  4  1  0
  4  5  2  0
  5  6  1  0
  6  7  2  0
  7  8  1  0
  8  9  2  0
  8 10  2  0
  8 11  1  0
 11 12  1  0
 12 13  1  0
 13 14  1  0
 13 15  1  0
 13 16  1  0
 11 17  1  0
 17 18  1  0
 18 19  2  0
 19 20  1  0
 20 21  1  0
 21 22  1  0
 21 23  1  0
 23 24  1  0
 23 25  1  0
 23 26  1  0
 21 27  1  0
 27 28  1  0
 27 29  1  0
 27 30  1  0
 20 31  2  0
 31 32  1  0
  7 33  1  0
 33  3  2  0
 32 17  2  0
  4 34  1  0
  5 35  1  0
  6 36  1  0
 12 37  1  0
 12 38  1  0
 18 39  1  0
 19 40  1  0
 22 41  1  0
 31 42  1  0
 32 43  1  0
 33 44  1  0
M  END
>  <QED>  (38) 
0.6

>  <MW>  (38) 
506.3

$$$$
CHEMBL3094369
     RDKit          3D

 43 44  0  0  0  0  0  0  0  0999 V2000
   -3.0531    1.5115   -2.7042 O   0  0  0  0  0  0  0  0  0  0  0  0
   -1.9863    0.6841   -2.1806 S   0  0  0  0  0  0  0  0  0  0  0  0
   -1.0953   -0.0338   -3.0672 O   0  0  0  0  0  0  0  0  0  0  0  0
   -2.7500   -0.5247   -1.1096 C   0  0  0  0  0  0  0  0  0  0  0  0
   -4.0162   -0.2728   -0.5671 C   0  0  0  0  0  0  0  0  0  0  0  0
   -4.6132   -1.2320    0.2522 C   0  0  0  0  0  0  0  0  0  0  0  0
   -3.9505   -2.4299    0.5064 C   0  0  0  0  0  0  0  0  0  0  0  0
   -4.5273   -3.3453    1.2953 F   0  0  0  0  0  0  0  0  0  0  0  0
   -2.7030   -2.6950   -0.0505 C   0  0  0  0  0  0  0  0  0  0  0  0
   -2.0995   -1.7430   -0.8724 C   0  0  0  0  0  0  0  0  0  0  0  0
   -1.0699    1.6290   -1.1007 N   0  0  0  0  0  0  0  0  0  0  0  0
   -1.7750    2.7486   -0.4065 C   0  0  0  0  0  0  0  0  0  0  0  0
   -1.5619    4.0896   -1.1099 C   0  0  0  0  0  0  0  0  0  0  0  0
   -1.9531    4.0796   -2.3983 F   0  0  0  0  0  0  0  0  0  0  0  0
   -2.2682    5.0590   -0.4777 F   0  0  0  0  0  0  0  0  0  0  0  0
   -0.2607    4.4598   -1.0732 F   0  0  0  0  0  0  0  0  0  0  0  0
    0.0447    1.0084   -0.4510 C   0  0  0  0  0  0  0  0  0  0  0  0
   -0.0567    0.4980    0.8420 C   0  0  0  0  0  0  0  0  0  0  0  0
    1.0328   -0.1554    1.4279 C   0  0  0  0  0  0  0  0  0  0  0  0
    2.2452   -0.3232    0.7335 C   0  0  0  0  0  0  0  0  0  0  0  0
    3.4381   -1.0494    1.3753 C   0  0  0  0  0  0  0  0  0  0  0  0
    3.0669   -1.4293    2.7462 O   0  0  0  0  0  0  0  0  0  0  0  0
    4.7019   -0.1824    1.4205 C   0  0  0  0  0  0  0  0  0  0  0  0
    5.6807   -0.8036    2.1259 F   0  0  0  0  0  0  0  0  0  0  0  0
    5.2076    0.1095    0.2049 F   0  0  0  0  0  0  0  0  0  0  0  0
    4.4722    0.9959    2.0511 F   0  0  0  0  0  0  0  0  0  0  0  0
    3.8394   -2.3069    0.5956 C   0  0  0  0  0  0  0  0  0  0  0  0
    4.7936   -3.0007    1.2657 F   0  0  0  0  0  0  0  0  0  0  0  0
    2.7902   -3.1537    0.4479 F   0  0  0  0  0  0  0  0  0  0  0  0
    4.3205   -2.0518   -0.6383 F   0  0  0  0  0  0  0  0  0  0  0  0
    2.3202    0.1862   -0.5760 C   0  0  0  0  0  0  0  0  0  0  0  0
    1.2303    0.8392   -1.1611 C   0  0  0  0  0  0  0  0  0  0  0  0
   -4.5459    0.6519   -0.7848 H   0  0  0  0  0  0  0  0  0  0  0  0
   -5.5942   -1.0608    0.6855 H   0  0  0  0  0  0  0  0  0  0  0  0
   -2.2136   -3.6429    0.1529 H   0  0  0  0  0  0  0  0  0  0  0  0
   -1.1293   -1.9536   -1.3190 H   0  0  0  0  0  0  0  0  0  0  0  0
   -1.4237    2.8465    0.6268 H   0  0  0  0  0  0  0  0  0  0  0  0
   -2.8473    2.5404   -0.3338 H   0  0  0  0  0  0  0  0  0  0  0  0
   -0.9800    0.5837    1.4085 H   0  0  0  0  0  0  0  0  0  0  0  0
    0.9125   -0.5399    2.4406 H   0  0  0  0  0  0  0  0  0  0  0  0
    3.8404   -1.8841    3.1372 H   0  0  0  0  0  0  0  0  0  0  0  0
    3.2225    0.0824   -1.1790 H   0  0  0  0  0  0  0  0  0  0  0  0
    1.3143    1.2108   -2.1810 H   0  0  0  0  0  0  0  0  0  0  0  0
  1  2  2  0
  2  3  2  0
  2  4  1  0
  4  5  1  0
  5  6  2  0
  6  7  1  0
  7  8  1  0
  7  9  2  0
  9 10  1  0
  2 11  1  0
 11 12  1  0
 12 13  1  0
 13 14  1  0
 13 15  1  0
 13 16  1  0
 11 17  1  0
 17 18  1  0
 18 19  2  0
 19 20  1  0
 20 21  1  0
 21 22  1  0
 21 23  1  0
 23 24  1  0
 23 25  1  0
 23 26  1  0
 21 27  1  0
 27 28  1  0
 27 29  1  0
 27 30  1  0
 20 31  2  0
 31 32  1  0
 10  4  2  0
 32 17  2  0
  5 33  1  0
  6 34  1  0
  9 35  1  0
 10 36  1  0
 12 37  1  0
 12 38  1  0
 18 39  1  0
 19 40  1  0
 22 41  1  0
 31 42  1  0
 32 43  1  0
M  END
>  <QED>  (39) 
0.596

>  <MW>  (39) 
499.3

$$$$
CHEMBL3094368
     RDKit          3D

 46 47  0  0  0  0  0  0  0  0999 V2000
   -7.1478    0.0560    0.1594 C   0  0  0  0  0  0  0  0  0  0  0  0
   -5.7011    0.3634    0.4158 C   0  0  0  0  0  0  0  0  0  0  0  0
   -4.8072   -0.6664    0.7408 C   0  0  0  0  0  0  0  0  0  0  0  0
   -3.4561   -0.3894    0.9509 C   0  0  0  0  0  0  0  0  0  0  0  0
   -2.9951    0.9223    0.8163 C   0  0  0  0  0  0  0  0  0  0  0  0
   -1.2693    1.2562    1.0729 S   0  0  0  0  0  0  0  0  0  0  0  0
   -1.0379    2.6634    0.8111 O   0  0  0  0  0  0  0  0  0  0  0  0
   -0.9089    0.6569    2.3400 O   0  0  0  0  0  0  0  0  0  0  0  0
   -0.5327    0.3773   -0.1990 N   0  0  0  0  0  0  0  0  0  0  0  0
   -0.8544    0.8655   -1.5908 C   0  0  0  0  0  0  0  0  0  0  0  0
   -1.2777   -0.2633   -2.5259 C   0  0  0  0  0  0  0  0  0  0  0  0
   -0.2725   -1.1352   -2.7583 F   0  0  0  0  0  0  0  0  0  0  0  0
   -1.6595    0.2384   -3.7245 F   0  0  0  0  0  0  0  0  0  0  0  0
   -2.3238   -0.9597   -2.0297 F   0  0  0  0  0  0  0  0  0  0  0  0
    0.8558    0.0668    0.0199 C   0  0  0  0  0  0  0  0  0  0  0  0
    1.8199    1.0574    0.2066 C   0  0  0  0  0  0  0  0  0  0  0  0
    3.1685    0.7135    0.3629 C   0  0  0  0  0  0  0  0  0  0  0  0
    3.5832   -0.6280    0.3183 C   0  0  0  0  0  0  0  0  0  0  0  0
    5.0496   -1.0661    0.4897 C   0  0  0  0  0  0  0  0  0  0  0  0
    5.0176   -2.1752    1.4454 O   0  0  0  0  0  0  0  0  0  0  0  0
    6.0107    0.0144    1.0021 C   0  0  0  0  0  0  0  0  0  0  0  0
    7.2559   -0.4608    1.2281 F   0  0  0  0  0  0  0  0  0  0  0  0
    5.5729    0.5007    2.1952 F   0  0  0  0  0  0  0  0  0  0  0  0
    6.1285    1.0700    0.1683 F   0  0  0  0  0  0  0  0  0  0  0  0
    5.6577   -1.4975   -0.8520 C   0  0  0  0  0  0  0  0  0  0  0  0
    4.9639   -2.5195   -1.4156 F   0  0  0  0  0  0  0  0  0  0  0  0
    6.9348   -1.9262   -0.7314 F   0  0  0  0  0  0  0  0  0  0  0  0
    5.6605   -0.4896   -1.7568 F   0  0  0  0  0  0  0  0  0  0  0  0
    2.5940   -1.6093    0.0990 C   0  0  0  0  0  0  0  0  0  0  0  0
    1.2484   -1.2656   -0.0554 C   0  0  0  0  0  0  0  0  0  0  0  0
   -3.8717    1.9594    0.4904 C   0  0  0  0  0  0  0  0  0  0  0  0
   -5.2222    1.6744    0.2830 C   0  0  0  0  0  0  0  0  0  0  0  0
   -7.7815    0.9084    0.4258 H   0  0  0  0  0  0  0  0  0  0  0  0
   -7.4791   -0.7956    0.7629 H   0  0  0  0  0  0  0  0  0  0  0  0
   -7.2978   -0.1798   -0.8987 H   0  0  0  0  0  0  0  0  0  0  0  0
   -5.1613   -1.6912    0.8348 H   0  0  0  0  0  0  0  0  0  0  0  0
   -2.7726   -1.1941    1.2133 H   0  0  0  0  0  0  0  0  0  0  0  0
    0.0058    1.3937   -2.0184 H   0  0  0  0  0  0  0  0  0  0  0  0
   -1.6723    1.5926   -1.5613 H   0  0  0  0  0  0  0  0  0  0  0  0
    1.5389    2.1081    0.2408 H   0  0  0  0  0  0  0  0  0  0  0  0
    3.8693    1.5320    0.5184 H   0  0  0  0  0  0  0  0  0  0  0  0
    4.6116   -1.8323    2.2648 H   0  0  0  0  0  0  0  0  0  0  0  0
    2.8650   -2.6649    0.0463 H   0  0  0  0  0  0  0  0  0  0  0  0
    0.5125   -2.0477   -0.2258 H   0  0  0  0  0  0  0  0  0  0  0  0
   -3.5193    2.9841    0.3979 H   0  0  0  0  0  0  0  0  0  0  0  0
   -5.9034    2.4823    0.0223 H   0  0  0  0  0  0  0  0  0  0  0  0
  1  2  1  0
  2  3  1  0
  3  4  2  0
  4  5  1  0
  5  6  1  0
  6  7  2  0
  6  8  2  0
  6  9  1  0
  9 10  1  0
 10 11  1  0
 11 12  1  0
 11 13  1  0
 11 14  1  0
  9 15  1  0
 15 16  1  0
 16 17  2  0
 17 18  1  0
 18 19  1  0
 19 20  1  0
 19 21  1  0
 21 22  1  0
 21 23  1  0
 21 24  1  0
 19 25  1  0
 25 26  1  0
 25 27  1  0
 25 28  1  0
 18 29  2  0
 29 30  1  0
  5 31  2  0
 31 32  1  0
 32  2  2  0
 30 15  2  0
  1 33  1  0
  1 34  1  0
  1 35  1  0
  3 36  1  0
  4 37  1  0
 10 38  1  0
 10 39  1  0
 16 40  1  0
 17 41  1  0
 20 42  1  0
 29 43  1  0
 30 44  1  0
 31 45  1  0
 32 46  1  0
M  END
>  <QED>  (40) 
0.59

>  <MW>  (40) 
495.4

$$$$
CHEMBL3580673
     RDKit          3D

 62 65  0  0  0  0  0  0  0  0999 V2000
   -8.6393    0.4670    2.5432 C   0  0  0  0  0  0  0  0  0  0  0  0
   -7.6015    1.4410    3.0417 C   0  0  0  0  0  0  0  0  0  0  0  0
   -7.9095    2.3224    3.8436 O   0  0  0  0  0  0  0  0  0  0  0  0
   -6.3166    1.2937    2.5511 N   0  0  0  0  0  0  0  0  0  0  0  0
   -5.2570    2.1753    3.0444 C   0  0  0  0  0  0  0  0  0  0  0  0
   -3.8860    1.4786    3.1165 C   0  0  0  0  0  0  0  0  0  0  0  0
   -3.5060    0.8620    1.8294 N   0  0  0  0  0  0  0  0  0  0  0  0
   -2.1700    0.7117    1.4869 C   0  0  0  0  0  0  0  0  0  0  0  0
   -1.7443    0.6319    0.1503 C   0  0  0  0  0  0  0  0  0  0  0  0
   -0.3948    0.4703   -0.1973 C   0  0  0  0  0  0  0  0  0  0  0  0
    0.5850    0.3680    0.7917 C   0  0  0  0  0  0  0  0  0  0  0  0
    2.0410    0.2162    0.4450 C   0  0  0  0  0  0  0  0  0  0  0  0
    2.2993   -0.8603   -0.5563 N   0  0  0  0  0  0  0  0  0  0  0  0
    2.5665   -2.1993    0.0853 C   0  0  0  0  0  0  0  0  0  0  0  0
    1.4771   -2.8098    1.0113 C   0  0  0  0  0  0  0  0  0  0  0  0
    1.9182   -4.1928    0.4960 C   0  0  0  0  0  0  0  0  0  0  0  0
    2.3822   -3.4728   -0.7846 C   0  0  0  0  0  0  0  0  0  0  0  0
    3.0758   -0.3430   -1.9931 S   0  0  0  0  0  0  0  0  0  0  0  0
    2.4550    0.9048   -2.3893 O   0  0  0  0  0  0  0  0  0  0  0  0
    3.1160   -1.4770   -2.8929 O   0  0  0  0  0  0  0  0  0  0  0  0
    4.7445   -0.0197   -1.3961 C   0  0  0  0  0  0  0  0  0  0  0  0
    5.5980    0.4644   -2.5408 C   0  0  0  0  0  0  0  0  0  0  0  0
    5.6922    1.8344   -2.8298 C   0  0  0  0  0  0  0  0  0  0  0  0
    6.4805    2.2814   -3.8929 C   0  0  0  0  0  0  0  0  0  0  0  0
    7.1761    1.3624   -4.6746 C   0  0  0  0  0  0  0  0  0  0  0  0
    8.1482    1.9142   -5.9824 Cl  0  0  0  0  0  0  0  0  0  0  0  0
    7.0872   -0.0010   -4.4049 C   0  0  0  0  0  0  0  0  0  0  0  0
    6.2994   -0.4494   -3.3421 C   0  0  0  0  0  0  0  0  0  0  0  0
    0.1765    0.4562    2.1187 C   0  0  0  0  0  0  0  0  0  0  0  0
    1.0858    0.3750    3.1019 F   0  0  0  0  0  0  0  0  0  0  0  0
   -1.1671    0.6186    2.4629 C   0  0  0  0  0  0  0  0  0  0  0  0
   -4.5836    0.6241    0.8555 C   0  0  0  0  0  0  0  0  0  0  0  0
   -5.9153    0.2934    1.5571 C   0  0  0  0  0  0  0  0  0  0  0  0
   -8.8891    0.6897    1.5028 H   0  0  0  0  0  0  0  0  0  0  0  0
   -9.5460    0.5649    3.1480 H   0  0  0  0  0  0  0  0  0  0  0  0
   -8.2826   -0.5617    2.6393 H   0  0  0  0  0  0  0  0  0  0  0  0
   -5.5188    2.5733    4.0306 H   0  0  0  0  0  0  0  0  0  0  0  0
   -5.2078    3.0237    2.3507 H   0  0  0  0  0  0  0  0  0  0  0  0
   -3.9159    0.6952    3.8834 H   0  0  0  0  0  0  0  0  0  0  0  0
   -3.1507    2.2320    3.4241 H   0  0  0  0  0  0  0  0  0  0  0  0
   -2.4561    0.7189   -0.6664 H   0  0  0  0  0  0  0  0  0  0  0  0
   -0.1200    0.4261   -1.2504 H   0  0  0  0  0  0  0  0  0  0  0  0
    2.3937    1.1913    0.0904 H   0  0  0  0  0  0  0  0  0  0  0  0
    2.6374    0.0060    1.3418 H   0  0  0  0  0  0  0  0  0  0  0  0
    3.5530   -2.1827    0.5716 H   0  0  0  0  0  0  0  0  0  0  0  0
    0.4456   -2.5602    0.7374 H   0  0  0  0  0  0  0  0  0  0  0  0
    1.6138   -2.6420    2.0827 H   0  0  0  0  0  0  0  0  0  0  0  0
    2.7346   -4.6416    1.0733 H   0  0  0  0  0  0  0  0  0  0  0  0
    1.1224   -4.9303    0.3672 H   0  0  0  0  0  0  0  0  0  0  0  0
    1.5989   -3.3940   -1.5478 H   0  0  0  0  0  0  0  0  0  0  0  0
    3.2904   -3.8723   -1.2432 H   0  0  0  0  0  0  0  0  0  0  0  0
    4.6938    0.7345   -0.6057 H   0  0  0  0  0  0  0  0  0  0  0  0
    5.1449   -0.9482   -0.9783 H   0  0  0  0  0  0  0  0  0  0  0  0
    5.1431    2.5656   -2.2389 H   0  0  0  0  0  0  0  0  0  0  0  0
    6.5412    3.3448   -4.1093 H   0  0  0  0  0  0  0  0  0  0  0  0
    7.6211   -0.7197   -5.0210 H   0  0  0  0  0  0  0  0  0  0  0  0
    6.2280   -1.5199   -3.1552 H   0  0  0  0  0  0  0  0  0  0  0  0
   -1.4086    0.6473    3.5203 H   0  0  0  0  0  0  0  0  0  0  0  0
   -4.7074    1.5174    0.2310 H   0  0  0  0  0  0  0  0  0  0  0  0
   -4.3421   -0.2218    0.2011 H   0  0  0  0  0  0  0  0  0  0  0  0
   -6.7058    0.1815    0.8085 H   0  0  0  0  0  0  0  0  0  0  0  0
   -5.8241   -0.6596    2.0923 H   0  0  0  0  0  0  0  0  0  0  0  0
  1  2  1  0
  2  3  2  0
  2  4  1  0
  4  5  1  0
  5  6  1  0
  6  7  1  0
  7  8  1  0
  8  9  1  0
  9 10  2  0
 10 11  1  0
 11 12  1  0
 12 13  1  0
 13 14  1  0
 14 15  1  0
 15 16  1  0
 16 17  1  0
 13 18  1  0
 18 19  2  0
 18 20  2  0
 18 21  1  0
 21 22  1  0
 22 23  1  0
 23 24  2  0
 24 25  1  0
 25 26  1  0
 25 27  2  0
 27 28  1  0
 11 29  2  0
 29 30  1  0
 29 31  1  0
  7 32  1  0
 32 33  1  0
 33  4  1  0
 31  8  2  0
 17 14  1  0
 28 22  2  0
  1 34  1  0
  1 35  1  0
  1 36  1  0
  5 37  1  0
  5 38  1  0
  6 39  1  0
  6 40  1  0
  9 41  1  0
 10 42  1  0
 12 43  1  0
 12 44  1  0
 14 45  1  0
 15 46  1  0
 15 47  1  0
 16 48  1  0
 16 49  1  0
 17 50  1  0
 17 51  1  0
 21 52  1  0
 21 53  1  0
 23 54  1  0
 24 55  1  0
 27 56  1  0
 28 57  1  0
 31 58  1  0
 32 59  1  0
 32 60  1  0
 33 61  1  0
 33 62  1  0
M  END
>  <QED>  (41) 
0.584

>  <MW>  (41) 
494.0

$$$$
CHEMBL3581541
     RDKit          3D

 62 65  0  0  0  0  0  0  0  0999 V2000
   -8.4817    1.3066    1.2516 C   0  0  0  0  0  0  0  0  0  0  0  0
   -7.7498   -0.0077    1.3565 C   0  0  0  0  0  0  0  0  0  0  0  0
   -8.3499   -1.0302    1.6861 O   0  0  0  0  0  0  0  0  0  0  0  0
   -6.3954    0.0048    1.0750 N   0  0  0  0  0  0  0  0  0  0  0  0
   -5.6281    1.2060    0.7325 C   0  0  0  0  0  0  0  0  0  0  0  0
   -4.1072    1.0337    0.9115 C   0  0  0  0  0  0  0  0  0  0  0  0
   -3.6076   -0.1368    0.1716 N   0  0  0  0  0  0  0  0  0  0  0  0
   -2.2733   -0.2543   -0.1905 C   0  0  0  0  0  0  0  0  0  0  0  0
   -1.8532   -1.1925   -1.1494 C   0  0  0  0  0  0  0  0  0  0  0  0
   -0.5101   -1.3240   -1.5326 C   0  0  0  0  0  0  0  0  0  0  0  0
    0.4729   -0.5161   -0.9573 C   0  0  0  0  0  0  0  0  0  0  0  0
    1.9182   -0.6334   -1.3612 C   0  0  0  0  0  0  0  0  0  0  0  0
    2.8564   -0.9830   -0.2538 N   0  0  0  0  0  0  0  0  0  0  0  0
    2.8126   -2.4194    0.2362 C   0  0  0  0  0  0  0  0  0  0  0  0
    1.6366   -2.8902    1.1261 C   0  0  0  0  0  0  0  0  0  0  0  0
    1.8378   -4.2944    0.5169 C   0  0  0  0  0  0  0  0  0  0  0  0
    2.4658   -3.5959   -0.7085 C   0  0  0  0  0  0  0  0  0  0  0  0
    4.3735   -0.1640   -0.3717 S   0  0  0  0  0  0  0  0  0  0  0  0
    5.2460   -0.7258    0.6402 O   0  0  0  0  0  0  0  0  0  0  0  0
    4.7437   -0.1759   -1.7728 O   0  0  0  0  0  0  0  0  0  0  0  0
    3.9222    1.5067    0.1305 C   0  0  0  0  0  0  0  0  0  0  0  0
    5.1527    2.3792    0.1086 C   0  0  0  0  0  0  0  0  0  0  0  0
    5.9811    2.4731    1.2371 C   0  0  0  0  0  0  0  0  0  0  0  0
    7.1224    3.2774    1.2161 C   0  0  0  0  0  0  0  0  0  0  0  0
    7.4493    3.9969    0.0674 C   0  0  0  0  0  0  0  0  0  0  0  0
    6.6350    3.9055   -1.0587 C   0  0  0  0  0  0  0  0  0  0  0  0
    7.0375    4.7920   -2.4778 Cl  0  0  0  0  0  0  0  0  0  0  0  0
    5.4941    3.1020   -1.0451 C   0  0  0  0  0  0  0  0  0  0  0  0
    0.0645    0.4320   -0.0228 C   0  0  0  0  0  0  0  0  0  0  0  0
    0.9654    1.2564    0.5312 F   0  0  0  0  0  0  0  0  0  0  0  0
   -1.2741    0.5621    0.3552 C   0  0  0  0  0  0  0  0  0  0  0  0
   -4.5141   -1.2992    0.0636 C   0  0  0  0  0  0  0  0  0  0  0  0
   -5.6472   -1.2532    1.1050 C   0  0  0  0  0  0  0  0  0  0  0  0
   -8.2686    1.7934    0.2966 H   0  0  0  0  0  0  0  0  0  0  0  0
   -9.5596    1.1242    1.3014 H   0  0  0  0  0  0  0  0  0  0  0  0
   -8.1999    1.9567    2.0837 H   0  0  0  0  0  0  0  0  0  0  0  0
   -5.9753    2.0487    1.3383 H   0  0  0  0  0  0  0  0  0  0  0  0
   -5.8536    1.4325   -0.3167 H   0  0  0  0  0  0  0  0  0  0  0  0
   -3.8720    0.9142    1.9762 H   0  0  0  0  0  0  0  0  0  0  0  0
   -3.6301    1.9545    0.5555 H   0  0  0  0  0  0  0  0  0  0  0  0
   -2.5792   -1.8338   -1.6441 H   0  0  0  0  0  0  0  0  0  0  0  0
   -0.2501   -2.0647   -2.2859 H   0  0  0  0  0  0  0  0  0  0  0  0
    2.0399   -1.3497   -2.1813 H   0  0  0  0  0  0  0  0  0  0  0  0
    2.1810    0.3355   -1.8023 H   0  0  0  0  0  0  0  0  0  0  0  0
    3.7547   -2.6377    0.7615 H   0  0  0  0  0  0  0  0  0  0  0  0
    0.6565   -2.4622    0.9062 H   0  0  0  0  0  0  0  0  0  0  0  0
    1.8081   -2.8217    2.2042 H   0  0  0  0  0  0  0  0  0  0  0  0
    2.5412   -4.9220    1.0761 H   0  0  0  0  0  0  0  0  0  0  0  0
    0.9255   -4.8642    0.3242 H   0  0  0  0  0  0  0  0  0  0  0  0
    1.7346   -3.3962   -1.4962 H   0  0  0  0  0  0  0  0  0  0  0  0
    3.3228   -4.1105   -1.1517 H   0  0  0  0  0  0  0  0  0  0  0  0
    3.1694    1.8971   -0.5580 H   0  0  0  0  0  0  0  0  0  0  0  0
    3.4988    1.4547    1.1382 H   0  0  0  0  0  0  0  0  0  0  0  0
    5.7505    1.9082    2.1397 H   0  0  0  0  0  0  0  0  0  0  0  0
    7.7604    3.3369    2.0946 H   0  0  0  0  0  0  0  0  0  0  0  0
    8.3398    4.6193    0.0551 H   0  0  0  0  0  0  0  0  0  0  0  0
    4.8771    3.0347   -1.9387 H   0  0  0  0  0  0  0  0  0  0  0  0
   -1.5022    1.3107    1.1060 H   0  0  0  0  0  0  0  0  0  0  0  0
   -4.9468   -1.3103   -0.9440 H   0  0  0  0  0  0  0  0  0  0  0  0
   -3.9695   -2.2393    0.2133 H   0  0  0  0  0  0  0  0  0  0  0  0
   -5.2287   -1.3441    2.1150 H   0  0  0  0  0  0  0  0  0  0  0  0
   -6.3208   -2.1031    0.9520 H   0  0  0  0  0  0  0  0  0  0  0  0
  1  2  1  0
  2  3  2  0
  2  4  1  0
  4  5  1  0
  5  6  1  0
  6  7  1  0
  7  8  1  0
  8  9  1  0
  9 10  2  0
 10 11  1  0
 11 12  1  0
 12 13  1  0
 13 14  1  0
 14 15  1  0
 15 16  1  0
 16 17  1  0
 13 18  1  0
 18 19  2  0
 18 20  2  0
 18 21  1  0
 21 22  1  0
 22 23  2  0
 23 24  1  0
 24 25  2  0
 25 26  1  0
 26 27  1  0
 26 28  2  0
 11 29  2  0
 29 30  1  0
 29 31  1  0
  7 32  1  0
 32 33  1  0
 33  4  1  0
 31  8  2  0
 17 14  1  0
 28 22  1  0
  1 34  1  0
  1 35  1  0
  1 36  1  0
  5 37  1  0
  5 38  1  0
  6 39  1  0
  6 40  1  0
  9 41  1  0
 10 42  1  0
 12 43  1  0
 12 44  1  0
 14 45  1  0
 15 46  1  0
 15 47  1  0
 16 48  1  0
 16 49  1  0
 17 50  1  0
 17 51  1  0
 21 52  1  0
 21 53  1  0
 23 54  1  0
 24 55  1  0
 25 56  1  0
 28 57  1  0
 31 58  1  0
 32 59  1  0
 32 60  1  0
 33 61  1  0
 33 62  1  0
M  END
>  <QED>  (42) 
0.584

>  <MW>  (42) 
494.0

$$$$
CHEMBL3581539
     RDKit          3D

 62 65  0  0  0  0  0  0  0  0999 V2000
   -8.5906    1.1835    3.1256 C   0  0  0  0  0  0  0  0  0  0  0  0
   -7.9766    0.2208    2.1405 C   0  0  0  0  0  0  0  0  0  0  0  0
   -8.6916   -0.5195    1.4658 O   0  0  0  0  0  0  0  0  0  0  0  0
   -6.5964    0.2133    2.0485 N   0  0  0  0  0  0  0  0  0  0  0  0
   -5.7025    1.0307    2.8741 C   0  0  0  0  0  0  0  0  0  0  0  0
   -4.2556    0.5024    2.9182 C   0  0  0  0  0  0  0  0  0  0  0  0
   -3.7043    0.3287    1.5654 N   0  0  0  0  0  0  0  0  0  0  0  0
   -2.3371    0.3174    1.3298 C   0  0  0  0  0  0  0  0  0  0  0  0
   -1.8125    0.4799    0.0356 C   0  0  0  0  0  0  0  0  0  0  0  0
   -0.4337    0.4740   -0.2208 C   0  0  0  0  0  0  0  0  0  0  0  0
    0.4791    0.2948    0.8198 C   0  0  0  0  0  0  0  0  0  0  0  0
    1.9640    0.3070    0.5772 C   0  0  0  0  0  0  0  0  0  0  0  0
    2.3817   -0.5502   -0.5700 N   0  0  0  0  0  0  0  0  0  0  0  0
    2.7044   -1.9647   -0.1523 C   0  0  0  0  0  0  0  0  0  0  0  0
    1.5950   -2.8042    0.5414 C   0  0  0  0  0  0  0  0  0  0  0  0
    2.1900   -4.0377   -0.1640 C   0  0  0  0  0  0  0  0  0  0  0  0
    2.6992   -3.0669   -1.2465 C   0  0  0  0  0  0  0  0  0  0  0  0
    3.2307    0.2651   -1.8146 S   0  0  0  0  0  0  0  0  0  0  0  0
    3.4336   -0.6811   -2.8902 O   0  0  0  0  0  0  0  0  0  0  0  0
    2.5437    1.5198   -2.0503 O   0  0  0  0  0  0  0  0  0  0  0  0
    4.8059    0.6052   -1.0057 C   0  0  0  0  0  0  0  0  0  0  0  0
    5.7614    1.1852   -2.0178 C   0  0  0  0  0  0  0  0  0  0  0  0
    5.7133    2.5653   -2.2891 C   0  0  0  0  0  0  0  0  0  0  0  0
    6.5657    3.1406   -3.2330 C   0  0  0  0  0  0  0  0  0  0  0  0
    7.4788    2.3484   -3.9222 C   0  0  0  0  0  0  0  0  0  0  0  0
    7.5390    0.9792   -3.6682 C   0  0  0  0  0  0  0  0  0  0  0  0
    6.6864    0.3986   -2.7240 C   0  0  0  0  0  0  0  0  0  0  0  0
    6.8365   -1.3020   -2.4561 Cl  0  0  0  0  0  0  0  0  0  0  0  0
   -0.0279    0.1542    2.1080 C   0  0  0  0  0  0  0  0  0  0  0  0
    0.8138   -0.0001    3.1412 F   0  0  0  0  0  0  0  0  0  0  0  0
   -1.4016    0.1622    2.3618 C   0  0  0  0  0  0  0  0  0  0  0  0
   -4.6496   -0.0577    0.4975 C   0  0  0  0  0  0  0  0  0  0  0  0
   -5.9507   -0.6562    1.0628 C   0  0  0  0  0  0  0  0  0  0  0  0
   -8.1816    2.1882    2.9917 H   0  0  0  0  0  0  0  0  0  0  0  0
   -8.4170    0.8326    4.1460 H   0  0  0  0  0  0  0  0  0  0  0  0
   -9.6701    1.2360    2.9537 H   0  0  0  0  0  0  0  0  0  0  0  0
   -6.0991    1.0966    3.8919 H   0  0  0  0  0  0  0  0  0  0  0  0
   -5.7152    2.0395    2.4439 H   0  0  0  0  0  0  0  0  0  0  0  0
   -4.2301   -0.4603    3.4433 H   0  0  0  0  0  0  0  0  0  0  0  0
   -3.6625    1.2230    3.4936 H   0  0  0  0  0  0  0  0  0  0  0  0
   -2.4743    0.6421   -0.8120 H   0  0  0  0  0  0  0  0  0  0  0  0
   -0.0834    0.6128   -1.2428 H   0  0  0  0  0  0  0  0  0  0  0  0
    2.2591    1.3519    0.4293 H   0  0  0  0  0  0  0  0  0  0  0  0
    2.5088   -0.0215    1.4714 H   0  0  0  0  0  0  0  0  0  0  0  0
    3.6416   -1.9731    0.4234 H   0  0  0  0  0  0  0  0  0  0  0  0
    0.5732   -2.5770    0.2167 H   0  0  0  0  0  0  0  0  0  0  0  0
    1.6271   -2.8264    1.6337 H   0  0  0  0  0  0  0  0  0  0  0  0
    2.9892   -4.5298    0.4019 H   0  0  0  0  0  0  0  0  0  0  0  0
    1.4713   -4.7900   -0.4975 H   0  0  0  0  0  0  0  0  0  0  0  0
    1.9789   -2.9018   -2.0565 H   0  0  0  0  0  0  0  0  0  0  0  0
    3.6726   -3.3151   -1.6775 H   0  0  0  0  0  0  0  0  0  0  0  0
    4.6262    1.3184   -0.1951 H   0  0  0  0  0  0  0  0  0  0  0  0
    5.1783   -0.3207   -0.5634 H   0  0  0  0  0  0  0  0  0  0  0  0
    4.9955    3.2052   -1.7767 H   0  0  0  0  0  0  0  0  0  0  0  0
    6.5091    4.2075   -3.4368 H   0  0  0  0  0  0  0  0  0  0  0  0
    8.1391    2.7944   -4.6617 H   0  0  0  0  0  0  0  0  0  0  0  0
    8.2522    0.3662   -4.2142 H   0  0  0  0  0  0  0  0  0  0  0  0
   -1.7133    0.0208    3.3907 H   0  0  0  0  0  0  0  0  0  0  0  0
   -4.8870    0.8327   -0.0972 H   0  0  0  0  0  0  0  0  0  0  0  0
   -4.2065   -0.8076   -0.1689 H   0  0  0  0  0  0  0  0  0  0  0  0
   -6.6399   -0.8792    0.2412 H   0  0  0  0  0  0  0  0  0  0  0  0
   -5.7337   -1.6017    1.5750 H   0  0  0  0  0  0  0  0  0  0  0  0
  1  2  1  0
  2  3  2  0
  2  4  1  0
  4  5  1  0
  5  6  1  0
  6  7  1  0
  7  8  1  0
  8  9  1  0
  9 10  2  0
 10 11  1  0
 11 12  1  0
 12 13  1  0
 13 14  1  0
 14 15  1  0
 15 16  1  0
 16 17  1  0
 13 18  1  0
 18 19  2  0
 18 20  2  0
 18 21  1  0
 21 22  1  0
 22 23  2  0
 23 24  1  0
 24 25  2  0
 25 26  1  0
 26 27  2  0
 27 28  1  0
 11 29  2  0
 29 30  1  0
 29 31  1  0
  7 32  1  0
 32 33  1  0
 33  4  1  0
 31  8  2  0
 17 14  1  0
 27 22  1  0
  1 34  1  0
  1 35  1  0
  1 36  1  0
  5 37  1  0
  5 38  1  0
  6 39  1  0
  6 40  1  0
  9 41  1  0
 10 42  1  0
 12 43  1  0
 12 44  1  0
 14 45  1  0
 15 46  1  0
 15 47  1  0
 16 48  1  0
 16 49  1  0
 17 50  1  0
 17 51  1  0
 21 52  1  0
 21 53  1  0
 23 54  1  0
 24 55  1  0
 25 56  1  0
 26 57  1  0
 31 58  1  0
 32 59  1  0
 32 60  1  0
 33 61  1  0
 33 62  1  0
M  END
>  <QED>  (43) 
0.584

>  <MW>  (43) 
494.0

$$$$
CHEMBL3581554
     RDKit          3D

 71 74  0  0  0  0  0  0  0  0999 V2000
    9.9403   -0.9767   -0.5771 C   0  0  0  0  0  0  0  0  0  0  0  0
    9.1599    0.1835   -1.1409 C   0  0  0  0  0  0  0  0  0  0  0  0
    9.7117    0.9989   -1.8801 O   0  0  0  0  0  0  0  0  0  0  0  0
    7.8149    0.2652   -0.8061 N   0  0  0  0  0  0  0  0  0  0  0  0
    7.0938    1.4826   -1.1939 C   0  0  0  0  0  0  0  0  0  0  0  0
    5.5834    1.2523   -1.3696 C   0  0  0  0  0  0  0  0  0  0  0  0
    5.0115    0.5943   -0.1737 N   0  0  0  0  0  0  0  0  0  0  0  0
    3.6132    0.5317   -0.0583 C   0  0  0  0  0  0  0  0  0  0  0  0
    2.7337    0.7949   -1.1192 C   0  0  0  0  0  0  0  0  0  0  0  0
    1.3417    0.7283   -0.9570 C   0  0  0  0  0  0  0  0  0  0  0  0
    0.7834    0.3995    0.2825 C   0  0  0  0  0  0  0  0  0  0  0  0
   -0.7104    0.3092    0.4727 C   0  0  0  0  0  0  0  0  0  0  0  0
   -1.2267   -1.0677    0.6633 N   0  0  0  0  0  0  0  0  0  0  0  0
   -0.8421   -2.0451   -0.4055 C   0  0  0  0  0  0  0  0  0  0  0  0
   -1.8557   -3.0880   -0.9378 C   0  0  0  0  0  0  0  0  0  0  0  0
   -0.6658   -4.0602   -1.0830 C   0  0  0  0  0  0  0  0  0  0  0  0
    0.0404   -3.2452    0.0193 C   0  0  0  0  0  0  0  0  0  0  0  0
   -2.2752   -1.3071    1.9740 S   0  0  0  0  0  0  0  0  0  0  0  0
   -1.7677   -0.5806    3.1186 O   0  0  0  0  0  0  0  0  0  0  0  0
   -2.6035   -2.7125    2.0799 O   0  0  0  0  0  0  0  0  0  0  0  0
   -3.7418   -0.4599    1.4192 C   0  0  0  0  0  0  0  0  0  0  0  0
   -3.9834    0.8509    1.8269 C   0  0  0  0  0  0  0  0  0  0  0  0
   -5.1418    1.5045    1.3975 C   0  0  0  0  0  0  0  0  0  0  0  0
   -6.0864    0.8651    0.5680 C   0  0  0  0  0  0  0  0  0  0  0  0
   -7.3521    1.6190    0.1194 C   0  0  0  0  0  0  0  0  0  0  0  0
   -8.2802    0.7918   -0.7986 C   0  0  0  0  0  0  0  0  0  0  0  0
   -8.1787    2.0265    1.3579 C   0  0  0  0  0  0  0  0  0  0  0  0
   -6.9509    2.8878   -0.6640 C   0  0  0  0  0  0  0  0  0  0  0  0
   -5.8253   -0.4656    0.1952 C   0  0  0  0  0  0  0  0  0  0  0  0
   -4.6680   -1.1275    0.6205 C   0  0  0  0  0  0  0  0  0  0  0  0
    1.6516    0.1589    1.3440 C   0  0  0  0  0  0  0  0  0  0  0  0
    1.1640   -0.1327    2.5568 F   0  0  0  0  0  0  0  0  0  0  0  0
    3.0352    0.2253    1.1824 C   0  0  0  0  0  0  0  0  0  0  0  0
    5.6930   -0.6851    0.1428 C   0  0  0  0  0  0  0  0  0  0  0  0
    7.2105   -0.4739    0.3101 C   0  0  0  0  0  0  0  0  0  0  0  0
    9.9878   -0.9071    0.5127 H   0  0  0  0  0  0  0  0  0  0  0  0
   10.9629   -0.9477   -0.9659 H   0  0  0  0  0  0  0  0  0  0  0  0
    9.4872   -1.9225   -0.8855 H   0  0  0  0  0  0  0  0  0  0  0  0
    7.2714    2.2218   -0.4027 H   0  0  0  0  0  0  0  0  0  0  0  0
    7.5063    1.8908   -2.1229 H   0  0  0  0  0  0  0  0  0  0  0  0
    5.1094    2.2269   -1.5376 H   0  0  0  0  0  0  0  0  0  0  0  0
    5.4181    0.6253   -2.2553 H   0  0  0  0  0  0  0  0  0  0  0  0
    3.1089    1.0427   -2.1081 H   0  0  0  0  0  0  0  0  0  0  0  0
    0.7030    0.9308   -1.8143 H   0  0  0  0  0  0  0  0  0  0  0  0
   -1.2238    0.7394   -0.3973 H   0  0  0  0  0  0  0  0  0  0  0  0
   -0.9720    0.9636    1.3115 H   0  0  0  0  0  0  0  0  0  0  0  0
   -0.4032   -1.5180   -1.2655 H   0  0  0  0  0  0  0  0  0  0  0  0
   -2.6089   -3.4501   -0.2354 H   0  0  0  0  0  0  0  0  0  0  0  0
   -2.3562   -2.8206   -1.8728 H   0  0  0  0  0  0  0  0  0  0  0  0
   -0.8727   -5.1059   -0.8428 H   0  0  0  0  0  0  0  0  0  0  0  0
   -0.1686   -4.0075   -2.0583 H   0  0  0  0  0  0  0  0  0  0  0  0
   -0.1472   -3.6170    1.0328 H   0  0  0  0  0  0  0  0  0  0  0  0
    1.1173   -3.1106   -0.1131 H   0  0  0  0  0  0  0  0  0  0  0  0
   -3.2865    1.3700    2.4814 H   0  0  0  0  0  0  0  0  0  0  0  0
   -5.3034    2.5279    1.7316 H   0  0  0  0  0  0  0  0  0  0  0  0
   -7.7691    0.4863   -1.7190 H   0  0  0  0  0  0  0  0  0  0  0  0
   -8.6464   -0.1106   -0.2952 H   0  0  0  0  0  0  0  0  0  0  0  0
   -9.1612    1.3729   -1.0966 H   0  0  0  0  0  0  0  0  0  0  0  0
   -8.4555    1.1486    1.9537 H   0  0  0  0  0  0  0  0  0  0  0  0
   -7.6307    2.7103    2.0154 H   0  0  0  0  0  0  0  0  0  0  0  0
   -9.1041    2.5363    1.0652 H   0  0  0  0  0  0  0  0  0  0  0  0
   -6.3800    3.5922   -0.0492 H   0  0  0  0  0  0  0  0  0  0  0  0
   -6.3335    2.6351   -1.5343 H   0  0  0  0  0  0  0  0  0  0  0  0
   -7.8353    3.4244   -1.0270 H   0  0  0  0  0  0  0  0  0  0  0  0
   -6.5184   -1.0262   -0.4269 H   0  0  0  0  0  0  0  0  0  0  0  0
   -4.5082   -2.1628    0.3309 H   0  0  0  0  0  0  0  0  0  0  0  0
    3.6564    0.0593    2.0574 H   0  0  0  0  0  0  0  0  0  0  0  0
    5.5131   -1.3989   -0.6721 H   0  0  0  0  0  0  0  0  0  0  0  0
    5.3161   -1.1372    1.0669 H   0  0  0  0  0  0  0  0  0  0  0  0
    7.4095    0.1093    1.2177 H   0  0  0  0  0  0  0  0  0  0  0  0
    7.6908   -1.4478    0.4345 H   0  0  0  0  0  0  0  0  0  0  0  0
  1  2  1  0
  2  3  2  0
  2  4  1  0
  4  5  1  0
  5  6  1  0
  6  7  1  0
  7  8  1  0
  8  9  1  0
  9 10  2  0
 10 11  1  0
 11 12  1  0
 12 13  1  0
 13 14  1  0
 14 15  1  0
 15 16  1  0
 16 17  1  0
 13 18  1  0
 18 19  2  0
 18 20  2  0
 18 21  1  0
 21 22  1  0
 22 23  2  0
 23 24  1  0
 24 25  1  0
 25 26  1  0
 25 27  1  0
 25 28  1  0
 24 29  2  0
 29 30  1  0
 11 31  2  0
 31 32  1  0
 31 33  1  0
  7 34  1  0
 34 35  1  0
 35  4  1  0
 33  8  2  0
 17 14  1  0
 30 21  2  0
  1 36  1  0
  1 37  1  0
  1 38  1  0
  5 39  1  0
  5 40  1  0
  6 41  1  0
  6 42  1  0
  9 43  1  0
 10 44  1  0
 12 45  1  0
 12 46  1  0
 14 47  1  0
 15 48  1  0
 15 49  1  0
 16 50  1  0
 16 51  1  0
 17 52  1  0
 17 53  1  0
 22 54  1  0
 23 55  1  0
 26 56  1  0
 26 57  1  0
 26 58  1  0
 27 59  1  0
 27 60  1  0
 27 61  1  0
 28 62  1  0
 28 63  1  0
 28 64  1  0
 29 65  1  0
 30 66  1  0
 33 67  1  0
 34 68  1  0
 34 69  1  0
 35 70  1  0
 35 71  1  0
M  END
>  <QED>  (44) 
0.583

>  <MW>  (44) 
501.7

$$$$
CHEMBL3361037
     RDKit          3D

 62 64  0  0  0  0  0  0  0  0999 V2000
   -4.5753   -2.9689    0.2941 C   0  0  0  0  0  0  0  0  0  0  0  0
   -4.2281   -2.0627   -0.8841 C   0  0  0  0  0  0  0  0  0  0  0  0
   -5.4533   -1.2487   -1.2875 C   0  0  0  0  0  0  0  0  0  0  0  0
   -2.9583   -1.2146   -0.6683 C   0  0  0  0  0  0  0  0  0  0  0  0
   -3.0496   -0.2294    0.4520 N   0  0  0  0  0  0  0  0  0  0  0  0
   -2.8631    1.1908    0.0271 C   0  0  0  0  0  0  0  0  0  0  0  0
   -4.0543    1.7990   -0.6738 C   0  0  0  0  0  0  0  0  0  0  0  0
   -5.2253    2.0736    0.0482 C   0  0  0  0  0  0  0  0  0  0  0  0
   -6.3263    2.6547   -0.5817 C   0  0  0  0  0  0  0  0  0  0  0  0
   -6.2666    2.9712   -1.9374 C   0  0  0  0  0  0  0  0  0  0  0  0
   -5.1064    2.7086   -2.6641 C   0  0  0  0  0  0  0  0  0  0  0  0
   -4.0033    2.1269   -2.0362 C   0  0  0  0  0  0  0  0  0  0  0  0
   -2.1974   -0.6242    1.8940 S   0  0  0  0  0  0  0  0  0  0  0  0
   -2.4385    0.4103    2.8763 O   0  0  0  0  0  0  0  0  0  0  0  0
   -2.4795   -2.0066    2.2218 O   0  0  0  0  0  0  0  0  0  0  0  0
   -0.4871   -0.5637    1.4356 C   0  0  0  0  0  0  0  0  0  0  0  0
    0.2087   -1.7459    1.1809 C   0  0  0  0  0  0  0  0  0  0  0  0
    1.5745   -1.7004    0.8677 C   0  0  0  0  0  0  0  0  0  0  0  0
    2.2884   -0.4915    0.8222 C   0  0  0  0  0  0  0  0  0  0  0  0
    3.6378   -0.4382    0.5042 N   0  0  0  0  0  0  0  0  0  0  0  0
    4.3414   -1.5955   -0.0789 C   0  0  0  0  0  0  0  0  0  0  0  0
    5.6313   -1.1482   -0.7909 C   0  0  0  0  0  0  0  0  0  0  0  0
    6.5629   -0.4492    0.1339 N   0  0  0  0  0  0  0  0  0  0  0  0
    7.9170    0.2905   -0.5328 S   0  0  0  0  0  0  0  0  0  0  0  0
    7.2422    1.7766   -1.2502 C   0  0  0  0  0  0  0  0  0  0  0  0
    8.3910   -0.5472   -1.6131 O   0  0  0  0  0  0  0  0  0  0  0  0
    8.7869    0.6841    0.5541 O   0  0  0  0  0  0  0  0  0  0  0  0
    5.9306    0.1556    1.3366 C   0  0  0  0  0  0  0  0  0  0  0  0
    4.4879    0.6287    1.0728 C   0  0  0  0  0  0  0  0  0  0  0  0
    1.5577    0.6755    1.0985 C   0  0  0  0  0  0  0  0  0  0  0  0
    0.1957    0.6391    1.4099 C   0  0  0  0  0  0  0  0  0  0  0  0
   -0.4223    1.8036    1.6425 F   0  0  0  0  0  0  0  0  0  0  0  0
   -3.7275   -3.6090    0.5574 H   0  0  0  0  0  0  0  0  0  0  0  0
   -4.8735   -2.3907    1.1741 H   0  0  0  0  0  0  0  0  0  0  0  0
   -5.4116   -3.6289    0.0377 H   0  0  0  0  0  0  0  0  0  0  0  0
   -4.0042   -2.7262   -1.7311 H   0  0  0  0  0  0  0  0  0  0  0  0
   -5.2336   -0.6055   -2.1440 H   0  0  0  0  0  0  0  0  0  0  0  0
   -6.2733   -1.9129   -1.5834 H   0  0  0  0  0  0  0  0  0  0  0  0
   -5.8173   -0.6359   -0.4593 H   0  0  0  0  0  0  0  0  0  0  0  0
   -2.7228   -0.6937   -1.6046 H   0  0  0  0  0  0  0  0  0  0  0  0
   -2.1140   -1.8931   -0.5071 H   0  0  0  0  0  0  0  0  0  0  0  0
   -1.9731    1.2660   -0.6102 H   0  0  0  0  0  0  0  0  0  0  0  0
   -2.6733    1.8365    0.8911 H   0  0  0  0  0  0  0  0  0  0  0  0
   -5.2823    1.8244    1.1069 H   0  0  0  0  0  0  0  0  0  0  0  0
   -7.2304    2.8577   -0.0136 H   0  0  0  0  0  0  0  0  0  0  0  0
   -7.1251    3.4231   -2.4272 H   0  0  0  0  0  0  0  0  0  0  0  0
   -5.0617    2.9583   -3.7210 H   0  0  0  0  0  0  0  0  0  0  0  0
   -3.1063    1.9323   -2.6187 H   0  0  0  0  0  0  0  0  0  0  0  0
   -0.2920   -2.7112    1.2333 H   0  0  0  0  0  0  0  0  0  0  0  0
    2.0757   -2.6493    0.6917 H   0  0  0  0  0  0  0  0  0  0  0  0
    3.7114   -2.0944   -0.8249 H   0  0  0  0  0  0  0  0  0  0  0  0
    4.5783   -2.3183    0.7115 H   0  0  0  0  0  0  0  0  0  0  0  0
    6.1335   -2.0313   -1.2001 H   0  0  0  0  0  0  0  0  0  0  0  0
    5.3671   -0.4825   -1.6198 H   0  0  0  0  0  0  0  0  0  0  0  0
    8.0671    2.3272   -1.7084 H   0  0  0  0  0  0  0  0  0  0  0  0
    6.7911    2.3835   -0.4638 H   0  0  0  0  0  0  0  0  0  0  0  0
    6.5109    1.5127   -2.0149 H   0  0  0  0  0  0  0  0  0  0  0  0
    5.9338   -0.6053    2.1268 H   0  0  0  0  0  0  0  0  0  0  0  0
    6.5180    0.9993    1.7126 H   0  0  0  0  0  0  0  0  0  0  0  0
    4.5007    1.4709    0.3709 H   0  0  0  0  0  0  0  0  0  0  0  0
    4.0850    0.9898    2.0269 H   0  0  0  0  0  0  0  0  0  0  0  0
    2.0298    1.6528    1.0584 H   0  0  0  0  0  0  0  0  0  0  0  0
  1  2  1  0
  2  3  1  0
  2  4  1  0
  4  5  1  0
  5  6  1  0
  6  7  1  0
  7  8  2  0
  8  9  1  0
  9 10  2  0
 10 11  1  0
 11 12  2  0
  5 13  1  0
 13 14  2  0
 13 15  2  0
 13 16  1  0
 16 17  1  0
 17 18  2  0
 18 19  1  0
 19 20  1  0
 20 21  1  0
 21 22  1  0
 22 23  1  0
 23 24  1  0
 24 25  1  0
 24 26  2  0
 24 27  2  0
 23 28  1  0
 28 29  1  0
 19 30  2  0
 30 31  1  0
 31 32  1  0
 12  7  1  0
 31 16  2  0
 29 20  1  0
  1 33  1  0
  1 34  1  0
  1 35  1  0
  2 36  1  0
  3 37  1  0
  3 38  1  0
  3 39  1  0
  4 40  1  0
  4 41  1  0
  6 42  1  0
  6 43  1  0
  8 44  1  0
  9 45  1  0
 10 46  1  0
 11 47  1  0
 12 48  1  0
 17 49  1  0
 18 50  1  0
 21 51  1  0
 21 52  1  0
 22 53  1  0
 22 54  1  0
 25 55  1  0
 25 56  1  0
 25 57  1  0
 28 58  1  0
 28 59  1  0
 29 60  1  0
 29 61  1  0
 30 62  1  0
M  END
>  <QED>  (45) 
0.577

>  <MW>  (45) 
483.6

$$$$
CHEMBL3361038
     RDKit          3D

 62 64  0  0  0  0  0  0  0  0999 V2000
   -4.6231   -3.0029    0.4006 C   0  0  0  0  0  0  0  0  0  0  0  0
   -4.1397   -2.2382   -0.8291 C   0  0  0  0  0  0  0  0  0  0  0  0
   -5.2650   -1.3625   -1.3718 C   0  0  0  0  0  0  0  0  0  0  0  0
   -2.8151   -1.4799   -0.6113 C   0  0  0  0  0  0  0  0  0  0  0  0
   -2.8768   -0.4240    0.4419 N   0  0  0  0  0  0  0  0  0  0  0  0
   -2.5939    0.9519   -0.0605 C   0  0  0  0  0  0  0  0  0  0  0  0
   -3.7833    1.6385   -0.6833 C   0  0  0  0  0  0  0  0  0  0  0  0
   -4.8846    1.9880    0.1128 C   0  0  0  0  0  0  0  0  0  0  0  0
   -5.9829    2.6424   -0.4457 C   0  0  0  0  0  0  0  0  0  0  0  0
   -5.9899    2.9578   -1.8029 C   0  0  0  0  0  0  0  0  0  0  0  0
   -4.8991    2.6207   -2.6026 C   0  0  0  0  0  0  0  0  0  0  0  0
   -3.7986    1.9658   -2.0464 C   0  0  0  0  0  0  0  0  0  0  0  0
   -2.1319   -0.7772    1.9446 S   0  0  0  0  0  0  0  0  0  0  0  0
   -2.4261    0.3075    2.8576 O   0  0  0  0  0  0  0  0  0  0  0  0
   -2.4149   -2.1481    2.3079 O   0  0  0  0  0  0  0  0  0  0  0  0
   -0.3870   -0.6928    1.5801 C   0  0  0  0  0  0  0  0  0  0  0  0
    0.3037   -1.8441    1.2029 C   0  0  0  0  0  0  0  0  0  0  0  0
    1.6802   -1.7773    0.9583 C   0  0  0  0  0  0  0  0  0  0  0  0
    2.4030   -0.5766    1.0958 C   0  0  0  0  0  0  0  0  0  0  0  0
    3.7892   -0.5968    0.8490 N   0  0  0  0  0  0  0  0  0  0  0  0
    4.1461   -0.9292   -0.5519 C   0  0  0  0  0  0  0  0  0  0  0  0
    5.6503   -1.2326   -0.6852 C   0  0  0  0  0  0  0  0  0  0  0  0
    6.4962   -0.1679   -0.0900 N   0  0  0  0  0  0  0  0  0  0  0  0
    7.2920    0.9352   -1.0618 S   0  0  0  0  0  0  0  0  0  0  0  0
    6.0152    2.0829   -1.5314 C   0  0  0  0  0  0  0  0  0  0  0  0
    7.7159    0.2473   -2.2625 O   0  0  0  0  0  0  0  0  0  0  0  0
    8.2382    1.6560   -0.2381 O   0  0  0  0  0  0  0  0  0  0  0  0
    6.1081    0.1872    1.2998 C   0  0  0  0  0  0  0  0  0  0  0  0
    4.6048    0.5034    1.4119 C   0  0  0  0  0  0  0  0  0  0  0  0
    1.6730    0.5524    1.5201 C   0  0  0  0  0  0  0  0  0  0  0  0
    2.2755    1.7408    1.6814 F   0  0  0  0  0  0  0  0  0  0  0  0
    0.3010    0.5040    1.7667 C   0  0  0  0  0  0  0  0  0  0  0  0
   -3.8554   -3.6985    0.7533 H   0  0  0  0  0  0  0  0  0  0  0  0
   -4.8922   -2.3264    1.2178 H   0  0  0  0  0  0  0  0  0  0  0  0
   -5.5119   -3.5967    0.1597 H   0  0  0  0  0  0  0  0  0  0  0  0
   -3.9319   -2.9898   -1.6036 H   0  0  0  0  0  0  0  0  0  0  0  0
   -4.9385   -0.8040   -2.2537 H   0  0  0  0  0  0  0  0  0  0  0  0
   -6.1174   -1.9806   -1.6755 H   0  0  0  0  0  0  0  0  0  0  0  0
   -5.6282   -0.6619   -0.6163 H   0  0  0  0  0  0  0  0  0  0  0  0
   -2.5034   -1.0394   -1.5666 H   0  0  0  0  0  0  0  0  0  0  0  0
   -2.0359   -2.2098   -0.3706 H   0  0  0  0  0  0  0  0  0  0  0  0
   -1.7560    0.9181   -0.7686 H   0  0  0  0  0  0  0  0  0  0  0  0
   -2.2605    1.6114    0.7486 H   0  0  0  0  0  0  0  0  0  0  0  0
   -4.8908    1.7399    1.1734 H   0  0  0  0  0  0  0  0  0  0  0  0
   -6.8334    2.9028    0.1791 H   0  0  0  0  0  0  0  0  0  0  0  0
   -6.8467    3.4663   -2.2371 H   0  0  0  0  0  0  0  0  0  0  0  0
   -4.9071    2.8687   -3.6609 H   0  0  0  0  0  0  0  0  0  0  0  0
   -2.9572    1.7121   -2.6865 H   0  0  0  0  0  0  0  0  0  0  0  0
   -0.2081   -2.8009    1.1187 H   0  0  0  0  0  0  0  0  0  0  0  0
    2.2038   -2.6953    0.6966 H   0  0  0  0  0  0  0  0  0  0  0  0
    3.8741   -0.0886   -1.2011 H   0  0  0  0  0  0  0  0  0  0  0  0
    3.5984   -1.8077   -0.9116 H   0  0  0  0  0  0  0  0  0  0  0  0
    5.8836   -2.1687   -0.1624 H   0  0  0  0  0  0  0  0  0  0  0  0
    5.8984   -1.3975   -1.7380 H   0  0  0  0  0  0  0  0  0  0  0  0
    6.4673    2.8256   -2.1935 H   0  0  0  0  0  0  0  0  0  0  0  0
    5.6305    2.5817   -0.6421 H   0  0  0  0  0  0  0  0  0  0  0  0
    5.2296    1.5524   -2.0690 H   0  0  0  0  0  0  0  0  0  0  0  0
    6.3566   -0.6669    1.9421 H   0  0  0  0  0  0  0  0  0  0  0  0
    6.6914    1.0356    1.6705 H   0  0  0  0  0  0  0  0  0  0  0  0
    4.3953    1.4353    0.8766 H   0  0  0  0  0  0  0  0  0  0  0  0
    4.3682    0.6486    2.4729 H   0  0  0  0  0  0  0  0  0  0  0  0
   -0.2032    1.4023    2.1117 H   0  0  0  0  0  0  0  0  0  0  0  0
  1  2  1  0
  2  3  1  0
  2  4  1  0
  4  5  1  0
  5  6  1  0
  6  7  1  0
  7  8  2  0
  8  9  1  0
  9 10  2  0
 10 11  1  0
 11 12  2  0
  5 13  1  0
 13 14  2  0
 13 15  2  0
 13 16  1  0
 16 17  1  0
 17 18  2  0
 18 19  1  0
 19 20  1  0
 20 21  1  0
 21 22  1  0
 22 23  1  0
 23 24  1  0
 24 25  1  0
 24 26  2  0
 24 27  2  0
 23 28  1  0
 28 29  1  0
 19 30  2  0
 30 31  1  0
 30 32  1  0
 12  7  1  0
 32 16  2  0
 29 20  1  0
  1 33  1  0
  1 34  1  0
  1 35  1  0
  2 36  1  0
  3 37  1  0
  3 38  1  0
  3 39  1  0
  4 40  1  0
  4 41  1  0
  6 42  1  0
  6 43  1  0
  8 44  1  0
  9 45  1  0
 10 46  1  0
 11 47  1  0
 12 48  1  0
 17 49  1  0
 18 50  1  0
 21 51  1  0
 21 52  1  0
 22 53  1  0
 22 54  1  0
 25 55  1  0
 25 56  1  0
 25 57  1  0
 28 58  1  0
 28 59  1  0
 29 60  1  0
 29 61  1  0
 32 62  1  0
M  END
>  <QED>  (46) 
0.577

>  <MW>  (46) 
483.6

$$$$
CHEMBL3361049
     RDKit          3D

 64 66  0  0  0  0  0  0  0  0999 V2000
    8.1719    1.1546    2.2870 C   0  0  0  0  0  0  0  0  0  0  0  0
    7.8476    0.2765    1.1045 C   0  0  0  0  0  0  0  0  0  0  0  0
    8.7309   -0.3847    0.5595 O   0  0  0  0  0  0  0  0  0  0  0  0
    6.5327    0.2648    0.6751 N   0  0  0  0  0  0  0  0  0  0  0  0
    6.1488   -0.6096   -0.4349 C   0  0  0  0  0  0  0  0  0  0  0  0
    4.7259   -1.1778   -0.2826 C   0  0  0  0  0  0  0  0  0  0  0  0
    3.7194   -0.1188   -0.0560 N   0  0  0  0  0  0  0  0  0  0  0  0
    2.4145   -0.2961   -0.4945 C   0  0  0  0  0  0  0  0  0  0  0  0
    1.8453   -1.5787   -0.5975 C   0  0  0  0  0  0  0  0  0  0  0  0
    0.5261   -1.7778   -1.0241 C   0  0  0  0  0  0  0  0  0  0  0  0
   -0.2688   -0.6787   -1.3373 C   0  0  0  0  0  0  0  0  0  0  0  0
   -1.9390   -0.9150   -1.9132 S   0  0  0  0  0  0  0  0  0  0  0  0
   -2.0266   -2.2609   -2.4424 O   0  0  0  0  0  0  0  0  0  0  0  0
   -2.2670    0.2265   -2.7392 O   0  0  0  0  0  0  0  0  0  0  0  0
   -2.8772   -0.8582   -0.4861 N   0  0  0  0  0  0  0  0  0  0  0  0
   -3.0158    0.4599    0.1795 C   0  0  0  0  0  0  0  0  0  0  0  0
   -3.9999    1.4218   -0.4693 C   0  0  0  0  0  0  0  0  0  0  0  0
   -5.0919    0.9270   -1.2060 C   0  0  0  0  0  0  0  0  0  0  0  0
   -6.0266    1.7885   -1.7806 C   0  0  0  0  0  0  0  0  0  0  0  0
   -5.8968    3.1626   -1.6213 C   0  0  0  0  0  0  0  0  0  0  0  0
   -4.8333    3.6769   -0.8823 C   0  0  0  0  0  0  0  0  0  0  0  0
   -3.8818    2.8229   -0.2914 C   0  0  0  0  0  0  0  0  0  0  0  0
   -2.7495    3.4267    0.5071 C   0  0  0  0  0  0  0  0  0  0  0  0
   -2.6146    2.8498    1.7357 F   0  0  0  0  0  0  0  0  0  0  0  0
   -1.5408    3.2772   -0.1035 F   0  0  0  0  0  0  0  0  0  0  0  0
   -2.8850    4.7614    0.7423 F   0  0  0  0  0  0  0  0  0  0  0  0
   -2.7326   -2.0060    0.4501 C   0  0  0  0  0  0  0  0  0  0  0  0
   -4.0447   -2.8053    0.5255 C   0  0  0  0  0  0  0  0  0  0  0  0
   -5.1010   -2.1027    1.3800 C   0  0  0  0  0  0  0  0  0  0  0  0
   -3.7740   -4.1989    1.0994 C   0  0  0  0  0  0  0  0  0  0  0  0
    0.2694    0.6047   -1.2787 C   0  0  0  0  0  0  0  0  0  0  0  0
    1.5898    0.7856   -0.8479 C   0  0  0  0  0  0  0  0  0  0  0  0
    4.2219    1.2025    0.3526 C   0  0  0  0  0  0  0  0  0  0  0  0
    5.4601    1.0746    1.2609 C   0  0  0  0  0  0  0  0  0  0  0  0
    8.1365    2.2059    1.9905 H   0  0  0  0  0  0  0  0  0  0  0  0
    9.1823    0.9260    2.6398 H   0  0  0  0  0  0  0  0  0  0  0  0
    7.4791    0.9659    3.1109 H   0  0  0  0  0  0  0  0  0  0  0  0
    6.2121   -0.0032   -1.3469 H   0  0  0  0  0  0  0  0  0  0  0  0
    6.8633   -1.4329   -0.5395 H   0  0  0  0  0  0  0  0  0  0  0  0
    4.7005   -1.8681    0.5693 H   0  0  0  0  0  0  0  0  0  0  0  0
    4.5016   -1.7479   -1.1924 H   0  0  0  0  0  0  0  0  0  0  0  0
    2.4237   -2.4595   -0.3291 H   0  0  0  0  0  0  0  0  0  0  0  0
    0.1400   -2.7907   -1.1091 H   0  0  0  0  0  0  0  0  0  0  0  0
   -2.0246    0.9102    0.2669 H   0  0  0  0  0  0  0  0  0  0  0  0
   -3.3705    0.3169    1.2081 H   0  0  0  0  0  0  0  0  0  0  0  0
   -5.2146   -0.1446   -1.3556 H   0  0  0  0  0  0  0  0  0  0  0  0
   -6.8516    1.3818   -2.3602 H   0  0  0  0  0  0  0  0  0  0  0  0
   -6.6220    3.8333   -2.0752 H   0  0  0  0  0  0  0  0  0  0  0  0
   -4.7493    4.7572   -0.7679 H   0  0  0  0  0  0  0  0  0  0  0  0
   -2.4174   -1.6659    1.4439 H   0  0  0  0  0  0  0  0  0  0  0  0
   -1.9358   -2.6726    0.1068 H   0  0  0  0  0  0  0  0  0  0  0  0
   -4.4499   -2.9321   -0.4866 H   0  0  0  0  0  0  0  0  0  0  0  0
   -4.7359   -1.9262    2.3975 H   0  0  0  0  0  0  0  0  0  0  0  0
   -6.0099   -2.7101    1.4494 H   0  0  0  0  0  0  0  0  0  0  0  0
   -5.3874   -1.1396    0.9513 H   0  0  0  0  0  0  0  0  0  0  0  0
   -3.0625   -4.7468    0.4723 H   0  0  0  0  0  0  0  0  0  0  0  0
   -4.6963   -4.7877    1.1455 H   0  0  0  0  0  0  0  0  0  0  0  0
   -3.3586   -4.1381    2.1111 H   0  0  0  0  0  0  0  0  0  0  0  0
   -0.3193    1.4718   -1.5710 H   0  0  0  0  0  0  0  0  0  0  0  0
    1.9690    1.8039   -0.8266 H   0  0  0  0  0  0  0  0  0  0  0  0
    4.4783    1.7847   -0.5412 H   0  0  0  0  0  0  0  0  0  0  0  0
    3.4594    1.7541    0.9153 H   0  0  0  0  0  0  0  0  0  0  0  0
    5.1790    0.5877    2.2025 H   0  0  0  0  0  0  0  0  0  0  0  0
    5.8435    2.0711    1.5013 H   0  0  0  0  0  0  0  0  0  0  0  0
  1  2  1  0
  2  3  2  0
  2  4  1  0
  4  5  1  0
  5  6  1  0
  6  7  1  0
  7  8  1  0
  8  9  1  0
  9 10  2  0
 10 11  1  0
 11 12  1  0
 12 13  2  0
 12 14  2  0
 12 15  1  0
 15 16  1  0
 16 17  1  0
 17 18  2  0
 18 19  1  0
 19 20  2  0
 20 21  1  0
 21 22  2  0
 22 23  1  0
 23 24  1  0
 23 25  1  0
 23 26  1  0
 15 27  1  0
 27 28  1  0
 28 29  1  0
 28 30  1  0
 11 31  2  0
 31 32  1  0
  7 33  1  0
 33 34  1  0
 34  4  1  0
 32  8  2  0
 22 17  1  0
  1 35  1  0
  1 36  1  0
  1 37  1  0
  5 38  1  0
  5 39  1  0
  6 40  1  0
  6 41  1  0
  9 42  1  0
 10 43  1  0
 16 44  1  0
 16 45  1  0
 18 46  1  0
 19 47  1  0
 20 48  1  0
 21 49  1  0
 27 50  1  0
 27 51  1  0
 28 52  1  0
 29 53  1  0
 29 54  1  0
 29 55  1  0
 30 56  1  0
 30 57  1  0
 30 58  1  0
 31 59  1  0
 32 60  1  0
 33 61  1  0
 33 62  1  0
 34 63  1  0
 34 64  1  0
M  END
>  <QED>  (47) 
0.575

>  <MW>  (47) 
497.6

$$$$
CHEMBL3361056
     RDKit          3D

 61 63  0  0  0  0  0  0  0  0999 V2000
   -2.8205   -2.0504    0.1211 C   0  0  0  0  0  0  0  0  0  0  0  0
   -3.6114   -1.5165    1.3147 C   0  0  0  0  0  0  0  0  0  0  0  0
   -5.0787   -1.9319    1.2187 C   0  0  0  0  0  0  0  0  0  0  0  0
   -3.4129   -0.0027    1.5294 C   0  0  0  0  0  0  0  0  0  0  0  0
   -3.7533    0.8081    0.3163 N   0  0  0  0  0  0  0  0  0  0  0  0
   -5.1449    1.1947    0.1765 C   0  0  0  0  0  0  0  0  0  0  0  0
   -5.7693    0.9213   -1.0445 C   0  0  0  0  0  0  0  0  0  0  0  0
   -7.0910    1.3179   -1.2651 C   0  0  0  0  0  0  0  0  0  0  0  0
   -7.7906    2.0076   -0.2740 C   0  0  0  0  0  0  0  0  0  0  0  0
   -7.1664    2.3092    0.9357 C   0  0  0  0  0  0  0  0  0  0  0  0
   -5.8490    1.9123    1.1513 C   0  0  0  0  0  0  0  0  0  0  0  0
   -5.2715    2.2310    2.3185 F   0  0  0  0  0  0  0  0  0  0  0  0
   -2.7073    2.1588    0.0389 S   0  0  0  0  0  0  0  0  0  0  0  0
   -3.1422    2.8709   -1.1455 O   0  0  0  0  0  0  0  0  0  0  0  0
   -2.5009    2.8467    1.2971 O   0  0  0  0  0  0  0  0  0  0  0  0
   -1.1763    1.3595   -0.3978 C   0  0  0  0  0  0  0  0  0  0  0  0
   -0.0734    1.4305    0.4561 C   0  0  0  0  0  0  0  0  0  0  0  0
    1.1257    0.8068    0.0932 C   0  0  0  0  0  0  0  0  0  0  0  0
    1.2240    0.1221   -1.1197 C   0  0  0  0  0  0  0  0  0  0  0  0
    2.3239   -0.5301   -1.5988 O   0  0  0  0  0  0  0  0  0  0  0  0
    3.5227   -0.5660   -0.8188 C   0  0  0  0  0  0  0  0  0  0  0  0
    4.3632    0.6877   -1.0704 C   0  0  0  0  0  0  0  0  0  0  0  0
    5.7076    0.5930   -0.3608 C   0  0  0  0  0  0  0  0  0  0  0  0
    6.4130   -0.6341   -0.7960 N   0  0  0  0  0  0  0  0  0  0  0  0
    8.0918   -0.6912   -0.5463 S   0  0  0  0  0  0  0  0  0  0  0  0
    8.2135   -0.8298    1.2268 C   0  0  0  0  0  0  0  0  0  0  0  0
    8.6452    0.5903   -0.9265 O   0  0  0  0  0  0  0  0  0  0  0  0
    8.5884   -1.9235   -1.1191 O   0  0  0  0  0  0  0  0  0  0  0  0
    5.6523   -1.8808   -0.5513 C   0  0  0  0  0  0  0  0  0  0  0  0
    4.3088   -1.8031   -1.2630 C   0  0  0  0  0  0  0  0  0  0  0  0
    0.1147    0.0751   -1.9725 C   0  0  0  0  0  0  0  0  0  0  0  0
   -1.0850    0.6955   -1.6215 C   0  0  0  0  0  0  0  0  0  0  0  0
   -3.1834   -1.6353   -0.8246 H   0  0  0  0  0  0  0  0  0  0  0  0
   -1.7577   -1.8080    0.2203 H   0  0  0  0  0  0  0  0  0  0  0  0
   -2.9057   -3.1407    0.0595 H   0  0  0  0  0  0  0  0  0  0  0  0
   -3.2094   -2.0068    2.2121 H   0  0  0  0  0  0  0  0  0  0  0  0
   -5.1693   -3.0214    1.2923 H   0  0  0  0  0  0  0  0  0  0  0  0
   -5.6658   -1.4959    2.0334 H   0  0  0  0  0  0  0  0  0  0  0  0
   -5.5285   -1.6364    0.2675 H   0  0  0  0  0  0  0  0  0  0  0  0
   -3.9844    0.3225    2.4043 H   0  0  0  0  0  0  0  0  0  0  0  0
   -2.3600    0.1464    1.7930 H   0  0  0  0  0  0  0  0  0  0  0  0
   -5.2260    0.4016   -1.8292 H   0  0  0  0  0  0  0  0  0  0  0  0
   -7.5702    1.0988   -2.2165 H   0  0  0  0  0  0  0  0  0  0  0  0
   -8.8165    2.3221   -0.4504 H   0  0  0  0  0  0  0  0  0  0  0  0
   -7.6925    2.8604    1.7088 H   0  0  0  0  0  0  0  0  0  0  0  0
   -0.1347    1.9698    1.3991 H   0  0  0  0  0  0  0  0  0  0  0  0
    1.9614    0.8881    0.7789 H   0  0  0  0  0  0  0  0  0  0  0  0
    3.2983   -0.6889    0.2479 H   0  0  0  0  0  0  0  0  0  0  0  0
    4.5146    0.8171   -2.1504 H   0  0  0  0  0  0  0  0  0  0  0  0
    3.8304    1.5844   -0.7354 H   0  0  0  0  0  0  0  0  0  0  0  0
    5.5621    0.5731    0.7251 H   0  0  0  0  0  0  0  0  0  0  0  0
    6.2920    1.4837   -0.6111 H   0  0  0  0  0  0  0  0  0  0  0  0
    7.7215   -1.7474    1.5524 H   0  0  0  0  0  0  0  0  0  0  0  0
    7.7621    0.0486    1.6900 H   0  0  0  0  0  0  0  0  0  0  0  0
    9.2745   -0.8735    1.4837 H   0  0  0  0  0  0  0  0  0  0  0  0
    6.1966   -2.7482   -0.9371 H   0  0  0  0  0  0  0  0  0  0  0  0
    5.5043   -2.0209    0.5253 H   0  0  0  0  0  0  0  0  0  0  0  0
    3.7222   -2.7078   -1.0625 H   0  0  0  0  0  0  0  0  0  0  0  0
    4.4581   -1.7764   -2.3507 H   0  0  0  0  0  0  0  0  0  0  0  0
    0.1908   -0.4467   -2.9244 H   0  0  0  0  0  0  0  0  0  0  0  0
   -1.9350    0.6587   -2.2989 H   0  0  0  0  0  0  0  0  0  0  0  0
  1  2  1  0
  2  3  1  0
  2  4  1  0
  4  5  1  0
  5  6  1  0
  6  7  2  0
  7  8  1  0
  8  9  2  0
  9 10  1  0
 10 11  2  0
 11 12  1  0
  5 13  1  0
 13 14  2  0
 13 15  2  0
 13 16  1  0
 16 17  1  0
 17 18  2  0
 18 19  1  0
 19 20  1  0
 20 21  1  0
 21 22  1  0
 22 23  1  0
 23 24  1  0
 24 25  1  0
 25 26  1  0
 25 27  2  0
 25 28  2  0
 24 29  1  0
 29 30  1  0
 19 31  2  0
 31 32  1  0
 11  6  1  0
 32 16  2  0
 30 21  1  0
  1 33  1  0
  1 34  1  0
  1 35  1  0
  2 36  1  0
  3 37  1  0
  3 38  1  0
  3 39  1  0
  4 40  1  0
  4 41  1  0
  7 42  1  0
  8 43  1  0
  9 44  1  0
 10 45  1  0
 17 46  1  0
 18 47  1  0
 21 48  1  0
 22 49  1  0
 22 50  1  0
 23 51  1  0
 23 52  1  0
 26 53  1  0
 26 54  1  0
 26 55  1  0
 29 56  1  0
 29 57  1  0
 30 58  1  0
 30 59  1  0
 31 60  1  0
 32 61  1  0
M  END
>  <QED>  (48) 
0.573

>  <MW>  (48) 
484.6

$$$$
CHEMBL3361058
     RDKit          3D

 61 63  0  0  0  0  0  0  0  0999 V2000
   -4.3630   -0.3942   -1.9749 C   0  0  0  0  0  0  0  0  0  0  0  0
   -3.3542   -0.7602   -0.8848 C   0  0  0  0  0  0  0  0  0  0  0  0
   -3.1391   -2.2753   -0.8680 C   0  0  0  0  0  0  0  0  0  0  0  0
   -3.8084   -0.2825    0.5060 C   0  0  0  0  0  0  0  0  0  0  0  0
   -3.7557    1.2118    0.5924 N   0  0  0  0  0  0  0  0  0  0  0  0
   -5.0337    1.8570    0.7770 C   0  0  0  0  0  0  0  0  0  0  0  0
   -5.8367    1.5999    1.8950 C   0  0  0  0  0  0  0  0  0  0  0  0
   -7.0528    2.2681    2.0460 C   0  0  0  0  0  0  0  0  0  0  0  0
   -7.4501    3.1940    1.0872 C   0  0  0  0  0  0  0  0  0  0  0  0
   -8.6175    3.8338    1.2332 F   0  0  0  0  0  0  0  0  0  0  0  0
   -6.6516    3.4704   -0.0171 C   0  0  0  0  0  0  0  0  0  0  0  0
   -5.4351    2.8038   -0.1696 C   0  0  0  0  0  0  0  0  0  0  0  0
   -2.5522    1.8574    1.6485 S   0  0  0  0  0  0  0  0  0  0  0  0
   -2.6817    1.1976    2.9334 O   0  0  0  0  0  0  0  0  0  0  0  0
   -2.5537    3.3026    1.5478 O   0  0  0  0  0  0  0  0  0  0  0  0
   -1.0417    1.2965    0.8946 C   0  0  0  0  0  0  0  0  0  0  0  0
   -0.5934    1.9214   -0.2702 C   0  0  0  0  0  0  0  0  0  0  0  0
    0.5942    1.4895   -0.8623 C   0  0  0  0  0  0  0  0  0  0  0  0
    1.3375    0.4463   -0.2986 C   0  0  0  0  0  0  0  0  0  0  0  0
    2.4793    0.1361   -0.9824 O   0  0  0  0  0  0  0  0  0  0  0  0
    3.2155   -1.0389   -0.6164 C   0  0  0  0  0  0  0  0  0  0  0  0
    4.2157   -0.7213    0.5027 C   0  0  0  0  0  0  0  0  0  0  0  0
    5.5837   -0.3588   -0.0581 C   0  0  0  0  0  0  0  0  0  0  0  0
    6.1588   -1.4850   -0.8451 N   0  0  0  0  0  0  0  0  0  0  0  0
    7.4302   -2.3584   -0.1253 S   0  0  0  0  0  0  0  0  0  0  0  0
    8.7607   -1.1748   -0.1798 C   0  0  0  0  0  0  0  0  0  0  0  0
    7.0670   -2.6018    1.2539 O   0  0  0  0  0  0  0  0  0  0  0  0
    7.7754   -3.4482   -1.0131 O   0  0  0  0  0  0  0  0  0  0  0  0
    5.1578   -2.3352   -1.5461 C   0  0  0  0  0  0  0  0  0  0  0  0
    3.9213   -1.5228   -1.8896 C   0  0  0  0  0  0  0  0  0  0  0  0
    0.8917   -0.1542    0.8810 C   0  0  0  0  0  0  0  0  0  0  0  0
   -0.2975    0.2713    1.4827 C   0  0  0  0  0  0  0  0  0  0  0  0
   -5.3581   -0.7908   -1.7468 H   0  0  0  0  0  0  0  0  0  0  0  0
   -4.4448    0.6901   -2.0903 H   0  0  0  0  0  0  0  0  0  0  0  0
   -4.0520   -0.8004   -2.9435 H   0  0  0  0  0  0  0  0  0  0  0  0
   -2.3982   -0.2918   -1.1425 H   0  0  0  0  0  0  0  0  0  0  0  0
   -4.0652   -2.8059   -0.6222 H   0  0  0  0  0  0  0  0  0  0  0  0
   -2.3815   -2.5520   -0.1270 H   0  0  0  0  0  0  0  0  0  0  0  0
   -2.7932   -2.6306   -1.8445 H   0  0  0  0  0  0  0  0  0  0  0  0
   -4.8189   -0.6580    0.7102 H   0  0  0  0  0  0  0  0  0  0  0  0
   -3.1695   -0.7301    1.2756 H   0  0  0  0  0  0  0  0  0  0  0  0
   -5.5182    0.8933    2.6570 H   0  0  0  0  0  0  0  0  0  0  0  0
   -7.6858    2.0806    2.9073 H   0  0  0  0  0  0  0  0  0  0  0  0
   -6.9756    4.2070   -0.7451 H   0  0  0  0  0  0  0  0  0  0  0  0
   -4.7995    3.0287   -1.0214 H   0  0  0  0  0  0  0  0  0  0  0  0
   -1.1587    2.7363   -0.7170 H   0  0  0  0  0  0  0  0  0  0  0  0
    0.9469    1.9713   -1.7718 H   0  0  0  0  0  0  0  0  0  0  0  0
    2.5345   -1.8375   -0.2961 H   0  0  0  0  0  0  0  0  0  0  0  0
    4.3201   -1.6039    1.1463 H   0  0  0  0  0  0  0  0  0  0  0  0
    3.8579    0.0995    1.1338 H   0  0  0  0  0  0  0  0  0  0  0  0
    6.2480   -0.0745    0.7640 H   0  0  0  0  0  0  0  0  0  0  0  0
    5.5168    0.5184   -0.7127 H   0  0  0  0  0  0  0  0  0  0  0  0
    8.9227   -0.8745   -1.2167 H   0  0  0  0  0  0  0  0  0  0  0  0
    9.6576   -1.6647    0.2063 H   0  0  0  0  0  0  0  0  0  0  0  0
    8.5158   -0.3160    0.4457 H   0  0  0  0  0  0  0  0  0  0  0  0
    5.6061   -2.7120   -2.4719 H   0  0  0  0  0  0  0  0  0  0  0  0
    4.8804   -3.1922   -0.9209 H   0  0  0  0  0  0  0  0  0  0  0  0
    3.2230   -2.1251   -2.4834 H   0  0  0  0  0  0  0  0  0  0  0  0
    4.1946   -0.6707   -2.5265 H   0  0  0  0  0  0  0  0  0  0  0  0
    1.4521   -0.9437    1.3711 H   0  0  0  0  0  0  0  0  0  0  0  0
   -0.6279   -0.1971    2.4076 H   0  0  0  0  0  0  0  0  0  0  0  0
  1  2  1  0
  2  3  1  0
  2  4  1  0
  4  5  1  0
  5  6  1  0
  6  7  1  0
  7  8  2  0
  8  9  1  0
  9 10  1  0
  9 11  2  0
 11 12  1  0
  5 13  1  0
 13 14  2  0
 13 15  2  0
 13 16  1  0
 16 17  1  0
 17 18  2  0
 18 19  1  0
 19 20  1  0
 20 21  1  0
 21 22  1  0
 22 23  1  0
 23 24  1  0
 24 25  1  0
 25 26  1  0
 25 27  2  0
 25 28  2  0
 24 29  1  0
 29 30  1  0
 19 31  2  0
 31 32  1  0
 12  6  2  0
 32 16  2  0
 30 21  1  0
  1 33  1  0
  1 34  1  0
  1 35  1  0
  2 36  1  0
  3 37  1  0
  3 38  1  0
  3 39  1  0
  4 40  1  0
  4 41  1  0
  7 42  1  0
  8 43  1  0
 11 44  1  0
 12 45  1  0
 17 46  1  0
 18 47  1  0
 21 48  1  0
 22 49  1  0
 22 50  1  0
 23 51  1  0
 23 52  1  0
 26 53  1  0
 26 54  1  0
 26 55  1  0
 29 56  1  0
 29 57  1  0
 30 58  1  0
 30 59  1  0
 31 60  1  0
 32 61  1  0
M  END
>  <QED>  (49) 
0.573

>  <MW>  (49) 
484.6

$$$$
CHEMBL3361057
     RDKit          3D

 61 63  0  0  0  0  0  0  0  0999 V2000
   -6.0342   -2.2653   -0.2242 C   0  0  0  0  0  0  0  0  0  0  0  0
   -4.8993   -2.5788    0.7506 C   0  0  0  0  0  0  0  0  0  0  0  0
   -5.3873   -2.4679    2.1953 C   0  0  0  0  0  0  0  0  0  0  0  0
   -3.6344   -1.7389    0.4899 C   0  0  0  0  0  0  0  0  0  0  0  0
   -3.8587   -0.2934    0.7646 N   0  0  0  0  0  0  0  0  0  0  0  0
   -4.2018    0.5675   -0.3399 C   0  0  0  0  0  0  0  0  0  0  0  0
   -5.2533    1.4760   -0.1722 C   0  0  0  0  0  0  0  0  0  0  0  0
   -5.5945    2.3658   -1.1937 C   0  0  0  0  0  0  0  0  0  0  0  0
   -4.8735    2.3592   -2.3850 C   0  0  0  0  0  0  0  0  0  0  0  0
   -3.8161    1.4700   -2.5378 C   0  0  0  0  0  0  0  0  0  0  0  0
   -3.1121    1.4749   -3.6774 F   0  0  0  0  0  0  0  0  0  0  0  0
   -3.4673    0.5802   -1.5267 C   0  0  0  0  0  0  0  0  0  0  0  0
   -2.9009    0.4229    1.9981 S   0  0  0  0  0  0  0  0  0  0  0  0
   -2.7226   -0.5482    3.0598 O   0  0  0  0  0  0  0  0  0  0  0  0
   -3.4094    1.7464    2.2967 O   0  0  0  0  0  0  0  0  0  0  0  0
   -1.3133    0.6319    1.2114 C   0  0  0  0  0  0  0  0  0  0  0  0
   -1.0164    1.8315    0.5624 C   0  0  0  0  0  0  0  0  0  0  0  0
    0.2357    1.9959   -0.0322 C   0  0  0  0  0  0  0  0  0  0  0  0
    1.1986    0.9827    0.0314 C   0  0  0  0  0  0  0  0  0  0  0  0
    2.3773    1.2894   -0.5872 O   0  0  0  0  0  0  0  0  0  0  0  0
    3.3898    0.2834   -0.7146 C   0  0  0  0  0  0  0  0  0  0  0  0
    4.2740    0.2462    0.5398 C   0  0  0  0  0  0  0  0  0  0  0  0
    5.5052    1.1311    0.3915 C   0  0  0  0  0  0  0  0  0  0  0  0
    6.3237    0.6952   -0.7616 N   0  0  0  0  0  0  0  0  0  0  0  0
    7.9387    0.2768   -0.5110 S   0  0  0  0  0  0  0  0  0  0  0  0
    7.7926   -1.2976    0.3103 C   0  0  0  0  0  0  0  0  0  0  0  0
    8.5051    1.2151    0.4333 O   0  0  0  0  0  0  0  0  0  0  0  0
    8.5479    0.0434   -1.8024 O   0  0  0  0  0  0  0  0  0  0  0  0
    5.6072    0.0753   -1.8942 C   0  0  0  0  0  0  0  0  0  0  0  0
    4.1941    0.6299   -1.9744 C   0  0  0  0  0  0  0  0  0  0  0  0
    0.9042   -0.1992    0.7138 C   0  0  0  0  0  0  0  0  0  0  0  0
   -0.3498   -0.3755    1.3092 C   0  0  0  0  0  0  0  0  0  0  0  0
   -6.4708   -1.2796   -0.0395 H   0  0  0  0  0  0  0  0  0  0  0  0
   -5.6824   -2.3004   -1.2604 H   0  0  0  0  0  0  0  0  0  0  0  0
   -6.8386   -3.0020   -0.1218 H   0  0  0  0  0  0  0  0  0  0  0  0
   -4.6173   -3.6271    0.5831 H   0  0  0  0  0  0  0  0  0  0  0  0
   -4.5911   -2.7381    2.8964 H   0  0  0  0  0  0  0  0  0  0  0  0
   -6.2278   -3.1482    2.3709 H   0  0  0  0  0  0  0  0  0  0  0  0
   -5.7250   -1.4539    2.4332 H   0  0  0  0  0  0  0  0  0  0  0  0
   -2.8296   -2.1319    1.1205 H   0  0  0  0  0  0  0  0  0  0  0  0
   -3.2953   -1.9028   -0.5384 H   0  0  0  0  0  0  0  0  0  0  0  0
   -5.8115    1.4944    0.7620 H   0  0  0  0  0  0  0  0  0  0  0  0
   -6.4154    3.0646   -1.0534 H   0  0  0  0  0  0  0  0  0  0  0  0
   -5.1217    3.0453   -3.1888 H   0  0  0  0  0  0  0  0  0  0  0  0
   -2.6184   -0.0746   -1.6848 H   0  0  0  0  0  0  0  0  0  0  0  0
   -1.7465    2.6367    0.5124 H   0  0  0  0  0  0  0  0  0  0  0  0
    0.4671    2.9269   -0.5461 H   0  0  0  0  0  0  0  0  0  0  0  0
    2.9358   -0.7016   -0.8805 H   0  0  0  0  0  0  0  0  0  0  0  0
    4.6046   -0.7870    0.7069 H   0  0  0  0  0  0  0  0  0  0  0  0
    3.7150    0.5549    1.4297 H   0  0  0  0  0  0  0  0  0  0  0  0
    6.0824    1.0927    1.3210 H   0  0  0  0  0  0  0  0  0  0  0  0
    5.2169    2.1777    0.2403 H   0  0  0  0  0  0  0  0  0  0  0  0
    7.2799   -2.0012   -0.3472 H   0  0  0  0  0  0  0  0  0  0  0  0
    7.2500   -1.1666    1.2477 H   0  0  0  0  0  0  0  0  0  0  0  0
    8.8022   -1.6593    0.5186 H   0  0  0  0  0  0  0  0  0  0  0  0
    6.1297    0.3105   -2.8274 H   0  0  0  0  0  0  0  0  0  0  0  0
    5.5808   -1.0133   -1.7764 H   0  0  0  0  0  0  0  0  0  0  0  0
    3.6780    0.2292   -2.8553 H   0  0  0  0  0  0  0  0  0  0  0  0
    4.2273    1.7183   -2.1195 H   0  0  0  0  0  0  0  0  0  0  0  0
    1.6312   -0.9970    0.8212 H   0  0  0  0  0  0  0  0  0  0  0  0
   -0.5585   -1.2922    1.8567 H   0  0  0  0  0  0  0  0  0  0  0  0
  1  2  1  0
  2  3  1  0
  2  4  1  0
  4  5  1  0
  5  6  1  0
  6  7  2  0
  7  8  1  0
  8  9  2  0
  9 10  1  0
 10 11  1  0
 10 12  2  0
  5 13  1  0
 13 14  2  0
 13 15  2  0
 13 16  1  0
 16 17  1  0
 17 18  2  0
 18 19  1  0
 19 20  1  0
 20 21  1  0
 21 22  1  0
 22 23  1  0
 23 24  1  0
 24 25  1  0
 25 26  1  0
 25 27  2  0
 25 28  2  0
 24 29  1  0
 29 30  1  0
 19 31  2  0
 31 32  1  0
 12  6  1  0
 32 16  2  0
 30 21  1  0
  1 33  1  0
  1 34  1  0
  1 35  1  0
  2 36  1  0
  3 37  1  0
  3 38  1  0
  3 39  1  0
  4 40  1  0
  4 41  1  0
  7 42  1  0
  8 43  1  0
  9 44  1  0
 12 45  1  0
 17 46  1  0
 18 47  1  0
 21 48  1  0
 22 49  1  0
 22 50  1  0
 23 51  1  0
 23 52  1  0
 26 53  1  0
 26 54  1  0
 26 55  1  0
 29 56  1  0
 29 57  1  0
 30 58  1  0
 30 59  1  0
 31 60  1  0
 32 61  1  0
M  END
>  <QED>  (50) 
0.573

>  <MW>  (50) 
484.6

$$$$
CHEMBL3596273
     RDKit          3D

 44 47  0  0  0  0  0  0  0  0999 V2000
    7.4280    1.2091   -1.3836 O   0  0  0  0  0  0  0  0  0  0  0  0
    6.7028    1.3823   -0.4222 C   0  0  0  0  0  0  0  0  0  0  0  0
    7.1790    1.8818    0.7316 O   0  0  0  0  0  0  0  0  0  0  0  0
    5.2525    1.0841   -0.3617 C   0  0  0  0  0  0  0  0  0  0  0  0
    4.6303    0.5698   -1.5059 C   0  0  0  0  0  0  0  0  0  0  0  0
    3.2631    0.2756   -1.4893 C   0  0  0  0  0  0  0  0  0  0  0  0
    2.5045    0.4792   -0.3281 C   0  0  0  0  0  0  0  0  0  0  0  0
    1.0903    0.1724   -0.3529 C   0  0  0  0  0  0  0  0  0  0  0  0
    0.2809    0.5724   -1.3847 N   0  0  0  0  0  0  0  0  0  0  0  0
   -0.9386    0.1342   -1.1160 C   0  0  0  0  0  0  0  0  0  0  0  0
   -2.0592    0.4768   -1.9850 C   0  0  0  0  0  0  0  0  0  0  0  0
   -1.9570    0.7738   -3.1758 O   0  0  0  0  0  0  0  0  0  0  0  0
   -3.4256    0.5358   -1.4391 C   0  0  0  0  0  0  0  0  0  0  0  0
   -4.3834   -0.4013   -1.8510 C   0  0  0  0  0  0  0  0  0  0  0  0
   -4.0038   -1.7189   -2.9030 Cl  0  0  0  0  0  0  0  0  0  0  0  0
   -5.6934   -0.3237   -1.3669 C   0  0  0  0  0  0  0  0  0  0  0  0
   -6.0558    0.6909   -0.4823 C   0  0  0  0  0  0  0  0  0  0  0  0
   -5.1089    1.6319   -0.0803 C   0  0  0  0  0  0  0  0  0  0  0  0
   -3.7965    1.5623   -0.5602 C   0  0  0  0  0  0  0  0  0  0  0  0
   -2.6954    2.7801   -0.0262 Cl  0  0  0  0  0  0  0  0  0  0  0  0
   -0.9032   -0.6288    0.0333 N   0  0  0  0  0  0  0  0  0  0  0  0
    0.3810   -0.6028    0.5406 C   0  0  0  0  0  0  0  0  0  0  0  0
    0.7784   -1.3785    1.7522 C   0  0  0  0  0  0  0  0  0  0  0  0
   -0.4327   -1.8432    2.5608 C   0  0  0  0  0  0  0  0  0  0  0  0
   -1.4952   -2.4345    1.6403 C   0  0  0  0  0  0  0  0  0  0  0  0
   -1.9819   -1.3865    0.6400 C   0  0  0  0  0  0  0  0  0  0  0  0
    3.1360    1.0117    0.7993 C   0  0  0  0  0  0  0  0  0  0  0  0
    2.4422    1.2765    1.9171 F   0  0  0  0  0  0  0  0  0  0  0  0
    4.4984    1.3090    0.7936 C   0  0  0  0  0  0  0  0  0  0  0  0
    8.1297    2.0344    0.5465 H   0  0  0  0  0  0  0  0  0  0  0  0
    5.2023    0.4026   -2.4171 H   0  0  0  0  0  0  0  0  0  0  0  0
    2.7845   -0.1091   -2.3892 H   0  0  0  0  0  0  0  0  0  0  0  0
   -6.4398   -1.0518   -1.6799 H   0  0  0  0  0  0  0  0  0  0  0  0
   -7.0776    0.7535   -0.1131 H   0  0  0  0  0  0  0  0  0  0  0  0
   -5.4037    2.4283    0.6010 H   0  0  0  0  0  0  0  0  0  0  0  0
    1.3551   -2.2539    1.4283 H   0  0  0  0  0  0  0  0  0  0  0  0
    1.4291   -0.7895    2.4041 H   0  0  0  0  0  0  0  0  0  0  0  0
   -0.8589   -0.9958    3.1129 H   0  0  0  0  0  0  0  0  0  0  0  0
   -0.1186   -2.5855    3.3030 H   0  0  0  0  0  0  0  0  0  0  0  0
   -1.0738   -3.2929    1.1019 H   0  0  0  0  0  0  0  0  0  0  0  0
   -2.3427   -2.8067    2.2263 H   0  0  0  0  0  0  0  0  0  0  0  0
   -2.6293   -0.6620    1.1448 H   0  0  0  0  0  0  0  0  0  0  0  0
   -2.5404   -1.8853   -0.1555 H   0  0  0  0  0  0  0  0  0  0  0  0
    4.9474    1.7221    1.6915 H   0  0  0  0  0  0  0  0  0  0  0  0
  1  2  2  0
  2  3  1  0
  2  4  1  0
  4  5  1  0
  5  6  2  0
  6  7  1  0
  7  8  1  0
  8  9  1  0
  9 10  2  0
 10 11  1  0
 11 12  2  0
 11 13  1  0
 13 14  2  0
 14 15  1  0
 14 16  1  0
 16 17  2  0
 17 18  1  0
 18 19  2  0
 19 20  1  0
 10 21  1  0
 21 22  1  0
 22 23  1  0
 23 24  1  0
 24 25  1  0
 25 26  1  0
  7 27  2  0
 27 28  1  0
 27 29  1  0
 29  4  2  0
 22  8  2  0
 19 13  1  0
 26 21  1  0
  3 30  1  0
  5 31  1  0
  6 32  1  0
 16 33  1  0
 17 34  1  0
 18 35  1  0
 23 36  1  0
 23 37  1  0
 24 38  1  0
 24 39  1  0
 25 40  1  0
 25 41  1  0
 26 42  1  0
 26 43  1  0
 29 44  1  0
M  END
>  <QED>  (51) 
0.57

>  <MW>  (51) 
433.3

$$$$
CHEMBL3596269
     RDKit          3D

 49 52  0  0  0  0  0  0  0  0999 V2000
   -2.1550   -2.2522    1.7911 O   0  0  0  0  0  0  0  0  0  0  0  0
   -2.2488   -1.3734    0.9341 C   0  0  0  0  0  0  0  0  0  0  0  0
   -3.5348   -1.3654    0.1999 C   0  0  0  0  0  0  0  0  0  0  0  0
   -3.5702   -1.5582   -1.1909 C   0  0  0  0  0  0  0  0  0  0  0  0
   -2.1540   -1.8081   -2.1476 Cl  0  0  0  0  0  0  0  0  0  0  0  0
   -4.7967   -1.5858   -1.8616 C   0  0  0  0  0  0  0  0  0  0  0  0
   -5.9888   -1.4442   -1.1556 C   0  0  0  0  0  0  0  0  0  0  0  0
   -5.9619   -1.2759    0.2274 C   0  0  0  0  0  0  0  0  0  0  0  0
   -4.7404   -1.2313    0.9253 C   0  0  0  0  0  0  0  0  0  0  0  0
   -4.7506   -1.0333    2.4243 C   0  0  0  0  0  0  0  0  0  0  0  0
   -3.7932   -0.1623    2.8438 F   0  0  0  0  0  0  0  0  0  0  0  0
   -4.5978   -2.1816    3.1275 F   0  0  0  0  0  0  0  0  0  0  0  0
   -5.9275   -0.4926    2.8590 F   0  0  0  0  0  0  0  0  0  0  0  0
   -1.2052   -0.4144    0.6168 C   0  0  0  0  0  0  0  0  0  0  0  0
    0.0713   -0.7442    0.7323 N   0  0  0  0  0  0  0  0  0  0  0  0
    0.7925    0.3122    0.2625 C   0  0  0  0  0  0  0  0  0  0  0  0
    2.1451    0.2436    0.2136 N   0  0  0  0  0  0  0  0  0  0  0  0
    2.8989    0.9006   -0.8523 C   0  0  0  0  0  0  0  0  0  0  0  0
    4.0184   -0.0026   -1.3699 C   0  0  0  0  0  0  0  0  0  0  0  0
    4.9908   -0.4198   -0.2592 C   0  0  1  0  0  0  0  0  0  0  0  0
    6.0770    0.6207   -0.1397 C   0  0  0  0  0  0  0  0  0  0  0  0
    5.9243    1.8309   -0.1056 O   0  0  0  0  0  0  0  0  0  0  0  0
    7.3112    0.0861   -0.0848 O   0  0  0  0  0  0  0  0  0  0  0  0
    4.3103   -0.5739    1.1055 C   0  0  2  0  0  0  0  0  0  0  0  0
    4.9385   -1.6367    1.8341 O   0  0  0  0  0  0  0  0  0  0  0  0
    2.8036   -0.8358    0.9552 C   0  0  0  0  0  0  0  0  0  0  0  0
   -0.0372    1.3542   -0.0829 C   0  0  0  0  0  0  0  0  0  0  0  0
    0.1120    2.6912   -0.5542 C   0  0  0  0  0  0  0  0  0  0  0  0
   -0.9771    3.4605   -0.7364 C   0  0  0  0  0  0  0  0  0  0  0  0
   -2.3098    2.9669   -0.4469 C   0  0  0  0  0  0  0  0  0  0  0  0
   -2.4557    1.7104    0.0051 C   0  0  0  0  0  0  0  0  0  0  0  0
   -1.3291    0.8955    0.1753 N   0  0  0  0  0  0  0  0  0  0  0  0
   -4.8312   -1.7362   -2.9392 H   0  0  0  0  0  0  0  0  0  0  0  0
   -6.9406   -1.4785   -1.6827 H   0  0  0  0  0  0  0  0  0  0  0  0
   -6.9059   -1.1790    0.7656 H   0  0  0  0  0  0  0  0  0  0  0  0
    3.3062    1.8451   -0.4755 H   0  0  0  0  0  0  0  0  0  0  0  0
    2.2544    1.1396   -1.7069 H   0  0  0  0  0  0  0  0  0  0  0  0
    3.5681   -0.9075   -1.7996 H   0  0  0  0  0  0  0  0  0  0  0  0
    4.5479    0.4996   -2.1887 H   0  0  0  0  0  0  0  0  0  0  0  0
    5.4685   -1.3593   -0.5670 H   0  0  0  0  0  0  0  0  0  0  0  0
    7.9070    0.8555    0.0305 H   0  0  0  0  0  0  0  0  0  0  0  0
    4.4457    0.3313    1.7107 H   0  0  0  0  0  0  0  0  0  0  0  0
    4.6649   -2.4831    1.4389 H   0  0  0  0  0  0  0  0  0  0  0  0
    2.3742   -0.9368    1.9611 H   0  0  0  0  0  0  0  0  0  0  0  0
    2.6391   -1.7987    0.4526 H   0  0  0  0  0  0  0  0  0  0  0  0
    1.1030    3.0888   -0.7435 H   0  0  0  0  0  0  0  0  0  0  0  0
   -0.8783    4.4847   -1.0839 H   0  0  0  0  0  0  0  0  0  0  0  0
   -3.1552    3.6333   -0.5805 H   0  0  0  0  0  0  0  0  0  0  0  0
   -3.4279    1.3199    0.2623 H   0  0  0  0  0  0  0  0  0  0  0  0
  1  2  2  0
  2  3  1  0
  3  4  2  0
  4  5  1  0
  4  6  1  0
  6  7  2  0
  7  8  1  0
  8  9  2  0
  9 10  1  0
 10 11  1  0
 10 12  1  0
 10 13  1  0
  2 14  1  0
 14 15  2  0
 15 16  1  0
 16 17  1  0
 17 18  1  0
 18 19  1  0
 19 20  1  0
 20 21  1  0
 21 22  2  0
 21 23  1  0
 20 24  1  0
 24 25  1  0
 24 26  1  0
 16 27  2  0
 27 28  1  0
 28 29  2  0
 29 30  1  0
 30 31  2  0
 31 32  1  0
  9  3  1  0
 32 14  1  0
 26 17  1  0
 32 27  1  0
  6 33  1  0
  7 34  1  0
  8 35  1  0
 18 36  1  0
 18 37  1  0
 19 38  1  0
 19 39  1  0
 20 40  1  6
 23 41  1  0
 24 42  1  1
 25 43  1  0
 26 44  1  0
 26 45  1  0
 28 46  1  0
 29 47  1  0
 30 48  1  0
 31 49  1  0
M  END
>  <QED>  (52) 
0.57

>  <MW>  (52) 
467.8

$$$$
CHEMBL3581550
     RDKit          3D

 59 62  0  0  0  0  0  0  0  0999 V2000
    7.8448    0.5213    3.6846 C   0  0  0  0  0  0  0  0  0  0  0  0
    7.1569   -0.6546    3.0390 C   0  0  0  0  0  0  0  0  0  0  0  0
    7.7488   -1.7274    2.9189 O   0  0  0  0  0  0  0  0  0  0  0  0
    5.8606   -0.4574    2.5815 N   0  0  0  0  0  0  0  0  0  0  0  0
    5.0159    0.6673    3.0054 C   0  0  0  0  0  0  0  0  0  0  0  0
    3.8932    0.9944    2.0011 C   0  0  0  0  0  0  0  0  0  0  0  0
    3.1356   -0.2287    1.6417 N   0  0  0  0  0  0  0  0  0  0  0  0
    1.9404    0.0392    0.9532 C   0  0  0  0  0  0  0  0  0  0  0  0
    1.6882   -0.3826   -0.3607 C   0  0  0  0  0  0  0  0  0  0  0  0
    0.4744   -0.1001   -1.0030 C   0  0  0  0  0  0  0  0  0  0  0  0
   -0.5371    0.5995   -0.3376 C   0  0  0  0  0  0  0  0  0  0  0  0
   -1.8386    0.9289   -1.0197 C   0  0  0  0  0  0  0  0  0  0  0  0
   -2.4790   -0.2512   -1.6677 N   0  0  0  0  0  0  0  0  0  0  0  0
   -3.3467   -1.0344   -0.7111 C   0  0  0  0  0  0  0  0  0  0  0  0
   -3.7111   -2.4973   -1.0901 C   0  0  0  0  0  0  0  0  0  0  0  0
   -3.6883   -2.8168    0.4165 C   0  0  0  0  0  0  0  0  0  0  0  0
   -2.6954   -1.6483    0.5607 C   0  0  0  0  0  0  0  0  0  0  0  0
   -2.8627   -0.0539   -3.3250 S   0  0  0  0  0  0  0  0  0  0  0  0
   -3.3137   -1.3367   -3.8270 O   0  0  0  0  0  0  0  0  0  0  0  0
   -1.7639    0.6194   -3.9785 O   0  0  0  0  0  0  0  0  0  0  0  0
   -4.3018    0.9999   -3.2860 C   0  0  0  0  0  0  0  0  0  0  0  0
   -5.5462    0.3534   -3.1437 C   0  0  0  0  0  0  0  0  0  0  0  0
   -6.7346    1.0848   -3.1345 C   0  0  0  0  0  0  0  0  0  0  0  0
   -6.6887    2.4653   -3.2815 C   0  0  0  0  0  0  0  0  0  0  0  0
   -8.1470    3.3755   -3.2691 Cl  0  0  0  0  0  0  0  0  0  0  0  0
   -5.4666    3.1144   -3.4429 C   0  0  0  0  0  0  0  0  0  0  0  0
   -4.2657    2.3870   -3.4542 C   0  0  0  0  0  0  0  0  0  0  0  0
   -2.8388    3.3312   -3.6621 Cl  0  0  0  0  0  0  0  0  0  0  0  0
   -0.2905    1.0223    0.9657 C   0  0  0  0  0  0  0  0  0  0  0  0
   -1.2324    1.7023    1.6361 F   0  0  0  0  0  0  0  0  0  0  0  0
    0.9173    0.7449    1.6044 C   0  0  0  0  0  0  0  0  0  0  0  0
    4.0170   -1.2901    1.1041 C   0  0  0  0  0  0  0  0  0  0  0  0
    5.1220   -1.6374    2.1159 C   0  0  0  0  0  0  0  0  0  0  0  0
    7.8821    1.3652    2.9908 H   0  0  0  0  0  0  0  0  0  0  0  0
    7.3300    0.8011    4.6074 H   0  0  0  0  0  0  0  0  0  0  0  0
    8.8730    0.2447    3.9374 H   0  0  0  0  0  0  0  0  0  0  0  0
    4.5818    0.3866    3.9730 H   0  0  0  0  0  0  0  0  0  0  0  0
    5.6190    1.5648    3.1651 H   0  0  0  0  0  0  0  0  0  0  0  0
    3.2503    1.7575    2.4544 H   0  0  0  0  0  0  0  0  0  0  0  0
    4.3324    1.4275    1.0927 H   0  0  0  0  0  0  0  0  0  0  0  0
    2.4361   -0.9276   -0.9296 H   0  0  0  0  0  0  0  0  0  0  0  0
    0.3253   -0.4345   -2.0289 H   0  0  0  0  0  0  0  0  0  0  0  0
   -1.6076    1.7138   -1.7425 H   0  0  0  0  0  0  0  0  0  0  0  0
   -2.5535    1.3745   -0.3171 H   0  0  0  0  0  0  0  0  0  0  0  0
   -4.2424   -0.4463   -0.4625 H   0  0  0  0  0  0  0  0  0  0  0  0
   -4.6767   -2.6390   -1.5817 H   0  0  0  0  0  0  0  0  0  0  0  0
   -2.9376   -3.0270   -1.6588 H   0  0  0  0  0  0  0  0  0  0  0  0
   -4.6471   -2.6493    0.9203 H   0  0  0  0  0  0  0  0  0  0  0  0
   -3.3074   -3.8037    0.6895 H   0  0  0  0  0  0  0  0  0  0  0  0
   -1.6516   -1.9602    0.4421 H   0  0  0  0  0  0  0  0  0  0  0  0
   -2.7931   -1.0612    1.4774 H   0  0  0  0  0  0  0  0  0  0  0  0
   -5.6009   -0.7306   -3.0478 H   0  0  0  0  0  0  0  0  0  0  0  0
   -7.6866    0.5709   -3.0221 H   0  0  0  0  0  0  0  0  0  0  0  0
   -5.4495    4.1959   -3.5660 H   0  0  0  0  0  0  0  0  0  0  0  0
    1.0401    1.0670    2.6338 H   0  0  0  0  0  0  0  0  0  0  0  0
    3.4422   -2.2013    0.8992 H   0  0  0  0  0  0  0  0  0  0  0  0
    4.4836   -0.9526    0.1695 H   0  0  0  0  0  0  0  0  0  0  0  0
    5.8085   -2.3625    1.6654 H   0  0  0  0  0  0  0  0  0  0  0  0
    4.6832   -2.1078    3.0048 H   0  0  0  0  0  0  0  0  0  0  0  0
  1  2  1  0
  2  3  2  0
  2  4  1  0
  4  5  1  0
  5  6  1  0
  6  7  1  0
  7  8  1  0
  8  9  1  0
  9 10  2  0
 10 11  1  0
 11 12  1  0
 12 13  1  0
 13 14  1  0
 14 15  1  0
 15 16  1  0
 16 17  1  0
 13 18  1  0
 18 19  2  0
 18 20  2  0
 18 21  1  0
 21 22  1  0
 22 23  2  0
 23 24  1  0
 24 25  1  0
 24 26  2  0
 26 27  1  0
 27 28  1  0
 11 29  2  0
 29 30  1  0
 29 31  1  0
  7 32  1  0
 32 33  1  0
 33  4  1  0
 31  8  2  0
 17 14  1  0
 27 21  2  0
  1 34  1  0
  1 35  1  0
  1 36  1  0
  5 37  1  0
  5 38  1  0
  6 39  1  0
  6 40  1  0
  9 41  1  0
 10 42  1  0
 12 43  1  0
 12 44  1  0
 14 45  1  0
 15 46  1  0
 15 47  1  0
 16 48  1  0
 16 49  1  0
 17 50  1  0
 17 51  1  0
 22 52  1  0
 23 53  1  0
 26 54  1  0
 31 55  1  0
 32 56  1  0
 32 57  1  0
 33 58  1  0
 33 59  1  0
M  END
>  <QED>  (53) 
0.568

>  <MW>  (53) 
514.5

$$$$
CHEMBL3581543
     RDKit          3D

 59 62  0  0  0  0  0  0  0  0999 V2000
    8.3328    1.4619    1.2056 C   0  0  0  0  0  0  0  0  0  0  0  0
    7.6597    0.1423    1.4880 C   0  0  0  0  0  0  0  0  0  0  0  0
    8.2825   -0.7710    2.0289 O   0  0  0  0  0  0  0  0  0  0  0  0
    6.3359    0.0193    1.1059 N   0  0  0  0  0  0  0  0  0  0  0  0
    5.5702    1.0593    0.4118 C   0  0  0  0  0  0  0  0  0  0  0  0
    4.3095    0.5250   -0.2954 C   0  0  0  0  0  0  0  0  0  0  0  0
    3.4516   -0.2316    0.6307 N   0  0  0  0  0  0  0  0  0  0  0  0
    2.0952   -0.4001    0.3933 C   0  0  0  0  0  0  0  0  0  0  0  0
    1.5179   -0.1460   -0.8622 C   0  0  0  0  0  0  0  0  0  0  0  0
    0.1451   -0.3071   -1.1016 C   0  0  0  0  0  0  0  0  0  0  0  0
   -0.7093   -0.7199   -0.0776 C   0  0  0  0  0  0  0  0  0  0  0  0
   -2.1818   -0.9201   -0.3149 C   0  0  0  0  0  0  0  0  0  0  0  0
   -2.8346    0.2487   -0.9733 N   0  0  0  0  0  0  0  0  0  0  0  0
   -3.3491    1.2582    0.0229 C   0  0  0  0  0  0  0  0  0  0  0  0
   -3.6512    2.6944   -0.4868 C   0  0  0  0  0  0  0  0  0  0  0  0
   -3.2033    3.2022    0.8967 C   0  0  0  0  0  0  0  0  0  0  0  0
   -2.3325    1.9348    0.9853 C   0  0  0  0  0  0  0  0  0  0  0  0
   -3.6274   -0.1009   -2.4436 S   0  0  0  0  0  0  0  0  0  0  0  0
   -4.1524    1.1271   -2.9988 O   0  0  0  0  0  0  0  0  0  0  0  0
   -2.7727   -0.9666   -3.2280 O   0  0  0  0  0  0  0  0  0  0  0  0
   -5.0251   -1.0619   -1.9087 C   0  0  0  0  0  0  0  0  0  0  0  0
   -6.1710   -0.4030   -1.4533 C   0  0  0  0  0  0  0  0  0  0  0  0
   -7.2724   -1.1556   -1.0544 C   0  0  0  0  0  0  0  0  0  0  0  0
   -8.6801   -0.3576   -0.4718 Cl  0  0  0  0  0  0  0  0  0  0  0  0
   -7.2447   -2.5477   -1.1199 C   0  0  0  0  0  0  0  0  0  0  0  0
   -6.1033   -3.1893   -1.5990 C   0  0  0  0  0  0  0  0  0  0  0  0
   -6.0676   -4.9065   -1.6904 Cl  0  0  0  0  0  0  0  0  0  0  0  0
   -4.9901   -2.4558   -2.0025 C   0  0  0  0  0  0  0  0  0  0  0  0
   -0.1476   -0.9843    1.1675 C   0  0  0  0  0  0  0  0  0  0  0  0
   -0.9298   -1.3933    2.1776 F   0  0  0  0  0  0  0  0  0  0  0  0
    1.2195   -0.8248    1.4032 C   0  0  0  0  0  0  0  0  0  0  0  0
    4.1245   -0.9852    1.7082 C   0  0  0  0  0  0  0  0  0  0  0  0
    5.6163   -1.2193    1.4086 C   0  0  0  0  0  0  0  0  0  0  0  0
    9.2939    1.4957    1.7278 H   0  0  0  0  0  0  0  0  0  0  0  0
    8.5156    1.5641    0.1329 H   0  0  0  0  0  0  0  0  0  0  0  0
    7.7243    2.2930    1.5710 H   0  0  0  0  0  0  0  0  0  0  0  0
    6.2123    1.5643   -0.3164 H   0  0  0  0  0  0  0  0  0  0  0  0
    5.2832    1.7957    1.1722 H   0  0  0  0  0  0  0  0  0  0  0  0
    4.6017   -0.1265   -1.1280 H   0  0  0  0  0  0  0  0  0  0  0  0
    3.7763    1.3902   -0.7070 H   0  0  0  0  0  0  0  0  0  0  0  0
    2.1322    0.1639   -1.7037 H   0  0  0  0  0  0  0  0  0  0  0  0
   -0.2463   -0.1068   -2.0979 H   0  0  0  0  0  0  0  0  0  0  0  0
   -2.2846   -1.8329   -0.9114 H   0  0  0  0  0  0  0  0  0  0  0  0
   -2.7072   -1.1301    0.6252 H   0  0  0  0  0  0  0  0  0  0  0  0
   -4.2052    0.8354    0.5688 H   0  0  0  0  0  0  0  0  0  0  0  0
   -3.0048    3.0329   -1.3052 H   0  0  0  0  0  0  0  0  0  0  0  0
   -4.6932    2.8999   -0.7453 H   0  0  0  0  0  0  0  0  0  0  0  0
   -4.0096    3.2392    1.6381 H   0  0  0  0  0  0  0  0  0  0  0  0
   -2.6649    4.1529    0.9049 H   0  0  0  0  0  0  0  0  0  0  0  0
   -1.3280    2.0759    0.5703 H   0  0  0  0  0  0  0  0  0  0  0  0
   -2.2503    1.4908    1.9806 H   0  0  0  0  0  0  0  0  0  0  0  0
   -6.2071    0.6837   -1.4156 H   0  0  0  0  0  0  0  0  0  0  0  0
   -8.1090   -3.1282   -0.8074 H   0  0  0  0  0  0  0  0  0  0  0  0
   -4.1110   -2.9666   -2.3898 H   0  0  0  0  0  0  0  0  0  0  0  0
    1.5757   -1.0213    2.4091 H   0  0  0  0  0  0  0  0  0  0  0  0
    3.6598   -1.9685    1.8498 H   0  0  0  0  0  0  0  0  0  0  0  0
    4.0254   -0.4209    2.6433 H   0  0  0  0  0  0  0  0  0  0  0  0
    5.7227   -1.8657    0.5286 H   0  0  0  0  0  0  0  0  0  0  0  0
    6.0837   -1.7363    2.2534 H   0  0  0  0  0  0  0  0  0  0  0  0
  1  2  1  0
  2  3  2  0
  2  4  1  0
  4  5  1  0
  5  6  1  0
  6  7  1  0
  7  8  1  0
  8  9  1  0
  9 10  2  0
 10 11  1  0
 11 12  1  0
 12 13  1  0
 13 14  1  0
 14 15  1  0
 15 16  1  0
 16 17  1  0
 13 18  1  0
 18 19  2  0
 18 20  2  0
 18 21  1  0
 21 22  2  0
 22 23  1  0
 23 24  1  0
 23 25  2  0
 25 26  1  0
 26 27  1  0
 26 28  2  0
 11 29  2  0
 29 30  1  0
 29 31  1  0
  7 32  1  0
 32 33  1  0
 33  4  1  0
 31  8  2  0
 17 14  1  0
 28 21  1  0
  1 34  1  0
  1 35  1  0
  1 36  1  0
  5 37  1  0
  5 38  1  0
  6 39  1  0
  6 40  1  0
  9 41  1  0
 10 42  1  0
 12 43  1  0
 12 44  1  0
 14 45  1  0
 15 46  1  0
 15 47  1  0
 16 48  1  0
 16 49  1  0
 17 50  1  0
 17 51  1  0
 22 52  1  0
 25 53  1  0
 28 54  1  0
 31 55  1  0
 32 56  1  0
 32 57  1  0
 33 58  1  0
 33 59  1  0
M  END
>  <QED>  (54) 
0.568

>  <MW>  (54) 
514.5

$$$$
CHEMBL3314035
     RDKit          3D

 59 62  0  0  0  0  0  0  0  0999 V2000
    8.5163   -1.5265    0.8983 C   0  0  0  0  0  0  0  0  0  0  0  0
    7.6242   -0.4517    1.4666 C   0  0  0  0  0  0  0  0  0  0  0  0
    8.0972    0.4465    2.1623 O   0  0  0  0  0  0  0  0  0  0  0  0
    6.2748   -0.5372    1.1742 N   0  0  0  0  0  0  0  0  0  0  0  0
    5.6569   -1.6202    0.4031 C   0  0  0  0  0  0  0  0  0  0  0  0
    4.1371   -1.7419    0.6275 C   0  0  0  0  0  0  0  0  0  0  0  0
    3.4511   -0.4643    0.3780 N   0  0  0  0  0  0  0  0  0  0  0  0
    2.1028   -0.4105    0.0562 C   0  0  0  0  0  0  0  0  0  0  0  0
    1.5251    0.7435   -0.5017 C   0  0  0  0  0  0  0  0  0  0  0  0
    0.1651    0.8144   -0.8365 C   0  0  0  0  0  0  0  0  0  0  0  0
   -0.6759   -0.2774   -0.6144 C   0  0  0  0  0  0  0  0  0  0  0  0
   -2.1340   -0.2352   -0.9847 C   0  0  0  0  0  0  0  0  0  0  0  0
   -2.8383    0.9719   -0.4626 N   0  0  0  0  0  0  0  0  0  0  0  0
   -3.4078    0.7549    0.9174 C   0  0  0  0  0  0  0  0  0  0  0  0
   -3.7741    2.0089    1.7582 C   0  0  0  0  0  0  0  0  0  0  0  0
   -3.3623    1.2042    3.0055 C   0  0  0  0  0  0  0  0  0  0  0  0
   -2.4327    0.4019    2.0757 C   0  0  0  0  0  0  0  0  0  0  0  0
   -3.6085    1.9274   -1.6491 S   0  0  0  0  0  0  0  0  0  0  0  0
   -4.1839    3.0923   -1.0132 O   0  0  0  0  0  0  0  0  0  0  0  0
   -2.7151    2.0610   -2.7800 O   0  0  0  0  0  0  0  0  0  0  0  0
   -4.9685    0.8921   -2.1544 C   0  0  0  0  0  0  0  0  0  0  0  0
   -6.1572    0.9141   -1.4188 C   0  0  0  0  0  0  0  0  0  0  0  0
   -7.2334    0.1238   -1.8265 C   0  0  0  0  0  0  0  0  0  0  0  0
   -7.1272   -0.6744   -2.9712 C   0  0  0  0  0  0  0  0  0  0  0  0
   -8.4962   -1.6313   -3.4111 Cl  0  0  0  0  0  0  0  0  0  0  0  0
   -5.9402   -0.6736   -3.7163 C   0  0  0  0  0  0  0  0  0  0  0  0
   -5.7433   -1.6286   -5.1422 Cl  0  0  0  0  0  0  0  0  0  0  0  0
   -4.8606    0.1172   -3.3130 C   0  0  0  0  0  0  0  0  0  0  0  0
   -0.1114   -1.4317   -0.0805 C   0  0  0  0  0  0  0  0  0  0  0  0
   -0.8796   -2.5101    0.1348 F   0  0  0  0  0  0  0  0  0  0  0  0
    1.2439   -1.5008    0.2504 C   0  0  0  0  0  0  0  0  0  0  0  0
    4.1975    0.7725    0.6873 C   0  0  0  0  0  0  0  0  0  0  0  0
    5.3734    0.5153    1.6472 C   0  0  0  0  0  0  0  0  0  0  0  0
    8.3509   -2.4667    1.4303 H   0  0  0  0  0  0  0  0  0  0  0  0
    9.5625   -1.2322    1.0269 H   0  0  0  0  0  0  0  0  0  0  0  0
    8.3344   -1.6552   -0.1717 H   0  0  0  0  0  0  0  0  0  0  0  0
    6.1404   -2.5704    0.6498 H   0  0  0  0  0  0  0  0  0  0  0  0
    5.8590   -1.4062   -0.6534 H   0  0  0  0  0  0  0  0  0  0  0  0
    3.9409   -2.0596    1.6589 H   0  0  0  0  0  0  0  0  0  0  0  0
    3.7691   -2.5231   -0.0481 H   0  0  0  0  0  0  0  0  0  0  0  0
    2.1357    1.6177   -0.7154 H   0  0  0  0  0  0  0  0  0  0  0  0
   -0.2261    1.7314   -1.2747 H   0  0  0  0  0  0  0  0  0  0  0  0
   -2.1836   -0.2950   -2.0772 H   0  0  0  0  0  0  0  0  0  0  0  0
   -2.6577   -1.1288   -0.6227 H   0  0  0  0  0  0  0  0  0  0  0  0
   -4.2473    0.0464    0.8632 H   0  0  0  0  0  0  0  0  0  0  0  0
   -4.8225    2.3162    1.7253 H   0  0  0  0  0  0  0  0  0  0  0  0
   -3.1379    2.8828    1.5740 H   0  0  0  0  0  0  0  0  0  0  0  0
   -2.8702    1.7719    3.7987 H   0  0  0  0  0  0  0  0  0  0  0  0
   -4.1756    0.6111    3.4391 H   0  0  0  0  0  0  0  0  0  0  0  0
   -1.4327    0.8417    1.9876 H   0  0  0  0  0  0  0  0  0  0  0  0
   -2.3374   -0.6612    2.3113 H   0  0  0  0  0  0  0  0  0  0  0  0
   -6.2553    1.5462   -0.5377 H   0  0  0  0  0  0  0  0  0  0  0  0
   -8.1575    0.1392   -1.2519 H   0  0  0  0  0  0  0  0  0  0  0  0
   -3.9466    0.1311   -3.9036 H   0  0  0  0  0  0  0  0  0  0  0  0
    1.5982   -2.4289    0.6853 H   0  0  0  0  0  0  0  0  0  0  0  0
    3.5461    1.5180    1.1592 H   0  0  0  0  0  0  0  0  0  0  0  0
    4.5788    1.1940   -0.2507 H   0  0  0  0  0  0  0  0  0  0  0  0
    5.9263    1.4469    1.8087 H   0  0  0  0  0  0  0  0  0  0  0  0
    4.9930    0.1860    2.6221 H   0  0  0  0  0  0  0  0  0  0  0  0
  1  2  1  0
  2  3  2  0
  2  4  1  0
  4  5  1  0
  5  6  1  0
  6  7  1  0
  7  8  1  0
  8  9  1  0
  9 10  2  0
 10 11  1  0
 11 12  1  0
 12 13  1  0
 13 14  1  0
 14 15  1  0
 15 16  1  0
 16 17  1  0
 13 18  1  0
 18 19  2  0
 18 20  2  0
 18 21  1  0
 21 22  1  0
 22 23  2  0
 23 24  1  0
 24 25  1  0
 24 26  2  0
 26 27  1  0
 26 28  1  0
 11 29  2  0
 29 30  1  0
 29 31  1  0
  7 32  1  0
 32 33  1  0
 33  4  1  0
 31  8  2  0
 17 14  1  0
 28 21  2  0
  1 34  1  0
  1 35  1  0
  1 36  1  0
  5 37  1  0
  5 38  1  0
  6 39  1  0
  6 40  1  0
  9 41  1  0
 10 42  1  0
 12 43  1  0
 12 44  1  0
 14 45  1  0
 15 46  1  0
 15 47  1  0
 16 48  1  0
 16 49  1  0
 17 50  1  0
 17 51  1  0
 22 52  1  0
 23 53  1  0
 28 54  1  0
 31 55  1  0
 32 56  1  0
 32 57  1  0
 33 58  1  0
 33 59  1  0
M  END
>  <QED>  (55) 
0.568

>  <MW>  (55) 
514.5

$$$$
CHEMBL3361061
     RDKit          3D

 62 64  0  0  0  0  0  0  0  0999 V2000
   -4.4950   -1.3020    2.4104 C   0  0  0  0  0  0  0  0  0  0  0  0
   -3.2091   -1.4041    1.5914 C   0  0  0  0  0  0  0  0  0  0  0  0
   -2.1177   -0.5153    2.1864 C   0  0  0  0  0  0  0  0  0  0  0  0
   -3.4163   -1.1605    0.0836 C   0  0  0  0  0  0  0  0  0  0  0  0
   -3.7152    0.2713   -0.2460 N   0  0  0  0  0  0  0  0  0  0  0  0
   -5.1010    0.6673   -0.1569 C   0  0  0  0  0  0  0  0  0  0  0  0
   -5.4107    1.7865    0.6201 C   0  0  0  0  0  0  0  0  0  0  0  0
   -6.7287    2.2432    0.7034 C   0  0  0  0  0  0  0  0  0  0  0  0
   -7.7417    1.5919   -0.0080 C   0  0  0  0  0  0  0  0  0  0  0  0
   -9.0949    2.0587    0.0754 C   0  0  0  0  0  0  0  0  0  0  0  0
  -10.1917    2.4310    0.1479 N   0  0  0  0  0  0  0  0  0  0  0  0
   -7.4272    0.4880   -0.8084 C   0  0  0  0  0  0  0  0  0  0  0  0
   -6.1079    0.0323   -0.8902 C   0  0  0  0  0  0  0  0  0  0  0  0
   -2.9979    0.8334   -1.7189 S   0  0  0  0  0  0  0  0  0  0  0  0
   -3.3410    2.2258   -1.9225 O   0  0  0  0  0  0  0  0  0  0  0  0
   -3.2584   -0.1619   -2.7410 O   0  0  0  0  0  0  0  0  0  0  0  0
   -1.2603    0.7949   -1.3400 C   0  0  0  0  0  0  0  0  0  0  0  0
   -0.4164   -0.1139   -1.9825 C   0  0  0  0  0  0  0  0  0  0  0  0
    0.9490   -0.1247   -1.6779 C   0  0  0  0  0  0  0  0  0  0  0  0
    1.4692    0.7778   -0.7475 C   0  0  0  0  0  0  0  0  0  0  0  0
    2.7739    0.8643   -0.3506 O   0  0  0  0  0  0  0  0  0  0  0  0
    3.7800    0.1920   -1.1197 C   0  0  0  0  0  0  0  0  0  0  0  0
    5.0625    1.0183   -0.9732 C   0  0  0  0  0  0  0  0  0  0  0  0
    6.2916    0.1839   -1.2860 C   0  0  0  0  0  0  0  0  0  0  0  0
    6.4110   -0.9834   -0.3673 N   0  0  0  0  0  0  0  0  0  0  0  0
    7.7891   -1.0202    0.6386 S   0  0  0  0  0  0  0  0  0  0  0  0
    9.0911   -1.2917   -0.5467 C   0  0  0  0  0  0  0  0  0  0  0  0
    7.7003   -2.2018    1.4696 O   0  0  0  0  0  0  0  0  0  0  0  0
    7.9453    0.2957    1.2186 O   0  0  0  0  0  0  0  0  0  0  0  0
    5.1500   -1.3542    0.3357 C   0  0  0  0  0  0  0  0  0  0  0  0
    3.9689   -1.2453   -0.6198 C   0  0  0  0  0  0  0  0  0  0  0  0
    0.6123    1.6861   -0.1161 C   0  0  0  0  0  0  0  0  0  0  0  0
   -0.7507    1.7065   -0.4142 C   0  0  0  0  0  0  0  0  0  0  0  0
   -5.3031   -1.8790    1.9492 H   0  0  0  0  0  0  0  0  0  0  0  0
   -4.3351   -1.7039    3.4172 H   0  0  0  0  0  0  0  0  0  0  0  0
   -4.8273   -0.2677    2.5279 H   0  0  0  0  0  0  0  0  0  0  0  0
   -2.8650   -2.4433    1.6870 H   0  0  0  0  0  0  0  0  0  0  0  0
   -1.9312   -0.7823    3.2323 H   0  0  0  0  0  0  0  0  0  0  0  0
   -1.1766   -0.6401    1.6417 H   0  0  0  0  0  0  0  0  0  0  0  0
   -2.3960    0.5431    2.1585 H   0  0  0  0  0  0  0  0  0  0  0  0
   -4.1994   -1.8257   -0.2971 H   0  0  0  0  0  0  0  0  0  0  0  0
   -2.4944   -1.4734   -0.4187 H   0  0  0  0  0  0  0  0  0  0  0  0
   -4.6247    2.3070    1.1615 H   0  0  0  0  0  0  0  0  0  0  0  0
   -6.9542    3.1131    1.3174 H   0  0  0  0  0  0  0  0  0  0  0  0
   -8.2022   -0.0159   -1.3835 H   0  0  0  0  0  0  0  0  0  0  0  0
   -5.8772   -0.8050   -1.5440 H   0  0  0  0  0  0  0  0  0  0  0  0
   -0.8083   -0.8155   -2.7159 H   0  0  0  0  0  0  0  0  0  0  0  0
    1.5745   -0.8559   -2.1790 H   0  0  0  0  0  0  0  0  0  0  0  0
    3.5132    0.1872   -2.1843 H   0  0  0  0  0  0  0  0  0  0  0  0
    5.0118    1.8852   -1.6433 H   0  0  0  0  0  0  0  0  0  0  0  0
    5.1378    1.4349    0.0402 H   0  0  0  0  0  0  0  0  0  0  0  0
    7.1789    0.8228   -1.2382 H   0  0  0  0  0  0  0  0  0  0  0  0
    6.2418   -0.2021   -2.3112 H   0  0  0  0  0  0  0  0  0  0  0  0
   10.0282   -1.3929    0.0055 H   0  0  0  0  0  0  0  0  0  0  0  0
    9.1558   -0.4392   -1.2235 H   0  0  0  0  0  0  0  0  0  0  0  0
    8.8837   -2.2139   -1.0927 H   0  0  0  0  0  0  0  0  0  0  0  0
    5.2241   -2.3939    0.6733 H   0  0  0  0  0  0  0  0  0  0  0  0
    4.9975   -0.7165    1.2142 H   0  0  0  0  0  0  0  0  0  0  0  0
    4.1569   -1.8972   -1.4827 H   0  0  0  0  0  0  0  0  0  0  0  0
    3.0662   -1.6166   -0.1225 H   0  0  0  0  0  0  0  0  0  0  0  0
    1.0148    2.3897    0.6098 H   0  0  0  0  0  0  0  0  0  0  0  0
   -1.4032    2.4266    0.0742 H   0  0  0  0  0  0  0  0  0  0  0  0
  1  2  1  0
  2  3  1  0
  2  4  1  0
  4  5  1  0
  5  6  1  0
  6  7  1  0
  7  8  2  0
  8  9  1  0
  9 10  1  0
 10 11  3  0
  9 12  2  0
 12 13  1  0
  5 14  1  0
 14 15  2  0
 14 16  2  0
 14 17  1  0
 17 18  1  0
 18 19  2  0
 19 20  1  0
 20 21  1  0
 21 22  1  0
 22 23  1  0
 23 24  1  0
 24 25  1  0
 25 26  1  0
 26 27  1  0
 26 28  2  0
 26 29  2  0
 25 30  1  0
 30 31  1  0
 20 32  2  0
 32 33  1  0
 13  6  2  0
 33 17  2  0
 31 22  1  0
  1 34  1  0
  1 35  1  0
  1 36  1  0
  2 37  1  0
  3 38  1  0
  3 39  1  0
  3 40  1  0
  4 41  1  0
  4 42  1  0
  7 43  1  0
  8 44  1  0
 12 45  1  0
 13 46  1  0
 18 47  1  0
 19 48  1  0
 22 49  1  0
 23 50  1  0
 23 51  1  0
 24 52  1  0
 24 53  1  0
 27 54  1  0
 27 55  1  0
 27 56  1  0
 30 57  1  0
 30 58  1  0
 31 59  1  0
 31 60  1  0
 32 61  1  0
 33 62  1  0
M  END
>  <QED>  (56) 
0.561

>  <MW>  (56) 
491.6

$$$$
CHEMBL3361060
     RDKit          3D

 62 64  0  0  0  0  0  0  0  0999 V2000
   -3.3253   -2.9545   -0.4159 C   0  0  0  0  0  0  0  0  0  0  0  0
   -3.3601   -1.6586    0.3971 C   0  0  0  0  0  0  0  0  0  0  0  0
   -2.1913   -1.6349    1.3849 C   0  0  0  0  0  0  0  0  0  0  0  0
   -3.3270   -0.4457   -0.5516 C   0  0  0  0  0  0  0  0  0  0  0  0
   -3.5111    0.8340    0.2036 N   0  0  0  0  0  0  0  0  0  0  0  0
   -4.8571    1.0963    0.6545 C   0  0  0  0  0  0  0  0  0  0  0  0
   -5.0811    1.1565    2.0315 C   0  0  0  0  0  0  0  0  0  0  0  0
   -6.3615    1.4104    2.5232 C   0  0  0  0  0  0  0  0  0  0  0  0
   -7.4206    1.6077    1.6361 C   0  0  0  0  0  0  0  0  0  0  0  0
   -7.1990    1.5552    0.2550 C   0  0  0  0  0  0  0  0  0  0  0  0
   -8.2882    1.7581   -0.6544 C   0  0  0  0  0  0  0  0  0  0  0  0
   -9.1749    1.9096   -1.3876 N   0  0  0  0  0  0  0  0  0  0  0  0
   -5.9144    1.3002   -0.2368 C   0  0  0  0  0  0  0  0  0  0  0  0
   -2.7824    2.2156   -0.5280 S   0  0  0  0  0  0  0  0  0  0  0  0
   -3.1530    2.2128   -1.9296 O   0  0  0  0  0  0  0  0  0  0  0  0
   -3.0075    3.3756    0.3088 O   0  0  0  0  0  0  0  0  0  0  0  0
   -1.0492    1.8345   -0.4119 C   0  0  0  0  0  0  0  0  0  0  0  0
   -0.2884    1.6443   -1.5672 C   0  0  0  0  0  0  0  0  0  0  0  0
    1.0729    1.3400   -1.4570 C   0  0  0  0  0  0  0  0  0  0  0  0
    1.6715    1.2358   -0.1996 C   0  0  0  0  0  0  0  0  0  0  0  0
    2.9803    0.9381    0.0535 O   0  0  0  0  0  0  0  0  0  0  0  0
    3.9123    0.8750   -1.0354 C   0  0  0  0  0  0  0  0  0  0  0  0
    3.9520   -0.5409   -1.6169 C   0  0  0  0  0  0  0  0  0  0  0  0
    4.5316   -1.5509   -0.6298 C   0  0  0  0  0  0  0  0  0  0  0  0
    5.8505   -1.1171   -0.1080 N   0  0  0  0  0  0  0  0  0  0  0  0
    7.2406   -1.4971   -1.0024 S   0  0  0  0  0  0  0  0  0  0  0  0
    7.3754   -3.2517   -0.7298 C   0  0  0  0  0  0  0  0  0  0  0  0
    8.3779   -0.8746   -0.3596 O   0  0  0  0  0  0  0  0  0  0  0  0
    6.9553   -1.2668   -2.4016 O   0  0  0  0  0  0  0  0  0  0  0  0
    5.7960    0.2288    0.5142 C   0  0  0  0  0  0  0  0  0  0  0  0
    5.2889    1.2619   -0.4827 C   0  0  0  0  0  0  0  0  0  0  0  0
    0.8962    1.4344    0.9488 C   0  0  0  0  0  0  0  0  0  0  0  0
   -0.4617    1.7400    0.8503 C   0  0  0  0  0  0  0  0  0  0  0  0
   -2.4077   -3.0276   -1.0098 H   0  0  0  0  0  0  0  0  0  0  0  0
   -3.3733   -3.8283    0.2425 H   0  0  0  0  0  0  0  0  0  0  0  0
   -4.1781   -3.0063   -1.1010 H   0  0  0  0  0  0  0  0  0  0  0  0
   -4.2937   -1.6527    0.9724 H   0  0  0  0  0  0  0  0  0  0  0  0
   -2.2347   -0.7527    2.0309 H   0  0  0  0  0  0  0  0  0  0  0  0
   -2.2148   -2.5173    2.0334 H   0  0  0  0  0  0  0  0  0  0  0  0
   -1.2289   -1.6268    0.8619 H   0  0  0  0  0  0  0  0  0  0  0  0
   -4.1039   -0.5436   -1.3194 H   0  0  0  0  0  0  0  0  0  0  0  0
   -2.3667   -0.4456   -1.0780 H   0  0  0  0  0  0  0  0  0  0  0  0
   -4.2564    1.0124    2.7247 H   0  0  0  0  0  0  0  0  0  0  0  0
   -6.5315    1.4608    3.5961 H   0  0  0  0  0  0  0  0  0  0  0  0
   -8.4163    1.8088    2.0285 H   0  0  0  0  0  0  0  0  0  0  0  0
   -5.7405    1.2730   -1.3106 H   0  0  0  0  0  0  0  0  0  0  0  0
   -0.7409    1.7305   -2.5530 H   0  0  0  0  0  0  0  0  0  0  0  0
    1.6314    1.1880   -2.3748 H   0  0  0  0  0  0  0  0  0  0  0  0
    3.6606    1.6098   -1.8088 H   0  0  0  0  0  0  0  0  0  0  0  0
    2.9453   -0.8737   -1.8927 H   0  0  0  0  0  0  0  0  0  0  0  0
    4.5441   -0.5304   -2.5378 H   0  0  0  0  0  0  0  0  0  0  0  0
    4.6089   -2.5338   -1.1042 H   0  0  0  0  0  0  0  0  0  0  0  0
    3.8536   -1.6824    0.2226 H   0  0  0  0  0  0  0  0  0  0  0  0
    6.5243   -3.7610   -1.1824 H   0  0  0  0  0  0  0  0  0  0  0  0
    8.2986   -3.5923   -1.2043 H   0  0  0  0  0  0  0  0  0  0  0  0
    7.4232   -3.4396    0.3444 H   0  0  0  0  0  0  0  0  0  0  0  0
    6.7760    0.5222    0.9033 H   0  0  0  0  0  0  0  0  0  0  0  0
    5.1375    0.1771    1.3901 H   0  0  0  0  0  0  0  0  0  0  0  0
    6.0008    1.3636   -1.3106 H   0  0  0  0  0  0  0  0  0  0  0  0
    5.2258    2.2338    0.0207 H   0  0  0  0  0  0  0  0  0  0  0  0
    1.3593    1.3585    1.9304 H   0  0  0  0  0  0  0  0  0  0  0  0
   -1.0496    1.9039    1.7505 H   0  0  0  0  0  0  0  0  0  0  0  0
  1  2  1  0
  2  3  1  0
  2  4  1  0
  4  5  1  0
  5  6  1  0
  6  7  2  0
  7  8  1  0
  8  9  2  0
  9 10  1  0
 10 11  1  0
 11 12  3  0
 10 13  2  0
  5 14  1  0
 14 15  2  0
 14 16  2  0
 14 17  1  0
 17 18  1  0
 18 19  2  0
 19 20  1  0
 20 21  1  0
 21 22  1  0
 22 23  1  0
 23 24  1  0
 24 25  1  0
 25 26  1  0
 26 27  1  0
 26 28  2  0
 26 29  2  0
 25 30  1  0
 30 31  1  0
 20 32  2  0
 32 33  1  0
 13  6  1  0
 33 17  2  0
 31 22  1  0
  1 34  1  0
  1 35  1  0
  1 36  1  0
  2 37  1  0
  3 38  1  0
  3 39  1  0
  3 40  1  0
  4 41  1  0
  4 42  1  0
  7 43  1  0
  8 44  1  0
  9 45  1  0
 13 46  1  0
 18 47  1  0
 19 48  1  0
 22 49  1  0
 23 50  1  0
 23 51  1  0
 24 52  1  0
 24 53  1  0
 27 54  1  0
 27 55  1  0
 27 56  1  0
 30 57  1  0
 30 58  1  0
 31 59  1  0
 31 60  1  0
 32 61  1  0
 33 62  1  0
M  END
>  <QED>  (57) 
0.561

>  <MW>  (57) 
491.6

$$$$
CHEMBL3361059
     RDKit          3D

 62 64  0  0  0  0  0  0  0  0999 V2000
   -6.3493    0.2635   -2.0105 C   0  0  0  0  0  0  0  0  0  0  0  0
   -5.1745   -0.4247   -2.7069 C   0  0  0  0  0  0  0  0  0  0  0  0
   -5.4710   -1.9096   -2.9091 C   0  0  0  0  0  0  0  0  0  0  0  0
   -3.8289   -0.1651   -2.0006 C   0  0  0  0  0  0  0  0  0  0  0  0
   -3.7737   -0.7759   -0.6467 N   0  0  0  0  0  0  0  0  0  0  0  0
   -4.0404    0.0357    0.5228 C   0  0  0  0  0  0  0  0  0  0  0  0
   -5.0110   -0.4586    1.4077 C   0  0  0  0  0  0  0  0  0  0  0  0
   -5.3192    0.2131    2.5915 C   0  0  0  0  0  0  0  0  0  0  0  0
   -4.6519    1.3887    2.9156 C   0  0  0  0  0  0  0  0  0  0  0  0
   -3.6734    1.8882    2.0567 C   0  0  0  0  0  0  0  0  0  0  0  0
   -3.3557    1.2179    0.8624 C   0  0  0  0  0  0  0  0  0  0  0  0
   -2.3315    1.7914    0.0402 C   0  0  0  0  0  0  0  0  0  0  0  0
   -1.5203    2.2759   -0.6344 N   0  0  0  0  0  0  0  0  0  0  0  0
   -2.7536   -2.1371   -0.4164 S   0  0  0  0  0  0  0  0  0  0  0  0
   -3.1524   -2.8214    0.7975 O   0  0  0  0  0  0  0  0  0  0  0  0
   -2.6546   -2.8638   -1.6656 O   0  0  0  0  0  0  0  0  0  0  0  0
   -1.1563   -1.4156   -0.1058 C   0  0  0  0  0  0  0  0  0  0  0  0
   -0.7214   -1.2404    1.2099 C   0  0  0  0  0  0  0  0  0  0  0  0
    0.5384   -0.6885    1.4458 C   0  0  0  0  0  0  0  0  0  0  0  0
    1.3687   -0.3189    0.3821 C   0  0  0  0  0  0  0  0  0  0  0  0
    2.5688    0.2101    0.7640 O   0  0  0  0  0  0  0  0  0  0  0  0
    3.3964    0.8445   -0.2216 C   0  0  0  0  0  0  0  0  0  0  0  0
    4.3686   -0.1724   -0.8255 C   0  0  0  0  0  0  0  0  0  0  0  0
    5.3873   -0.6689    0.1971 C   0  0  0  0  0  0  0  0  0  0  0  0
    6.0894    0.4537    0.8667 N   0  0  0  0  0  0  0  0  0  0  0  0
    7.4624    1.1119    0.1208 S   0  0  0  0  0  0  0  0  0  0  0  0
    8.6580   -0.1871    0.3537 C   0  0  0  0  0  0  0  0  0  0  0  0
    7.9041    2.2460    0.9043 O   0  0  0  0  0  0  0  0  0  0  0  0
    7.1916    1.2432   -1.2940 O   0  0  0  0  0  0  0  0  0  0  0  0
    5.1476    1.4057    1.5058 C   0  0  0  0  0  0  0  0  0  0  0  0
    4.1694    1.9655    0.4821 C   0  0  0  0  0  0  0  0  0  0  0  0
    0.9390   -0.5337   -0.9287 C   0  0  0  0  0  0  0  0  0  0  0  0
   -0.3210   -1.0892   -1.1763 C   0  0  0  0  0  0  0  0  0  0  0  0
   -6.1310    1.3198   -1.8226 H   0  0  0  0  0  0  0  0  0  0  0  0
   -7.2453    0.2169   -2.6393 H   0  0  0  0  0  0  0  0  0  0  0  0
   -6.5952   -0.2144   -1.0581 H   0  0  0  0  0  0  0  0  0  0  0  0
   -5.0915    0.0258   -3.7054 H   0  0  0  0  0  0  0  0  0  0  0  0
   -6.3928   -2.0426   -3.4859 H   0  0  0  0  0  0  0  0  0  0  0  0
   -5.5988   -2.4322   -1.9557 H   0  0  0  0  0  0  0  0  0  0  0  0
   -4.6631   -2.3949   -3.4657 H   0  0  0  0  0  0  0  0  0  0  0  0
   -3.6748    0.9161   -1.9578 H   0  0  0  0  0  0  0  0  0  0  0  0
   -3.0169   -0.5476   -2.6284 H   0  0  0  0  0  0  0  0  0  0  0  0
   -5.5345   -1.3852    1.1756 H   0  0  0  0  0  0  0  0  0  0  0  0
   -6.0763   -0.1896    3.2608 H   0  0  0  0  0  0  0  0  0  0  0  0
   -4.8887    1.9129    3.8389 H   0  0  0  0  0  0  0  0  0  0  0  0
   -3.1534    2.8067    2.3274 H   0  0  0  0  0  0  0  0  0  0  0  0
   -1.3489   -1.5266    2.0511 H   0  0  0  0  0  0  0  0  0  0  0  0
    0.8785   -0.5428    2.4688 H   0  0  0  0  0  0  0  0  0  0  0  0
    2.7879    1.3161   -1.0022 H   0  0  0  0  0  0  0  0  0  0  0  0
    3.8260   -1.0411   -1.2142 H   0  0  0  0  0  0  0  0  0  0  0  0
    4.8812    0.2872   -1.6769 H   0  0  0  0  0  0  0  0  0  0  0  0
    6.1045   -1.3388   -0.2866 H   0  0  0  0  0  0  0  0  0  0  0  0
    4.8905   -1.2696    0.9690 H   0  0  0  0  0  0  0  0  0  0  0  0
    8.3562   -1.0708   -0.2089 H   0  0  0  0  0  0  0  0  0  0  0  0
    9.6185    0.1735   -0.0219 H   0  0  0  0  0  0  0  0  0  0  0  0
    8.7392   -0.4055    1.4201 H   0  0  0  0  0  0  0  0  0  0  0  0
    4.6140    0.8777    2.3058 H   0  0  0  0  0  0  0  0  0  0  0  0
    5.6869    2.2183    2.0023 H   0  0  0  0  0  0  0  0  0  0  0  0
    4.7085    2.5628   -0.2629 H   0  0  0  0  0  0  0  0  0  0  0  0
    3.4674    2.6328    0.9960 H   0  0  0  0  0  0  0  0  0  0  0  0
    1.5595   -0.2884   -1.7842 H   0  0  0  0  0  0  0  0  0  0  0  0
   -0.6370   -1.2602   -2.2028 H   0  0  0  0  0  0  0  0  0  0  0  0
  1  2  1  0
  2  3  1  0
  2  4  1  0
  4  5  1  0
  5  6  1  0
  6  7  2  0
  7  8  1  0
  8  9  2  0
  9 10  1  0
 10 11  2  0
 11 12  1  0
 12 13  3  0
  5 14  1  0
 14 15  2  0
 14 16  2  0
 14 17  1  0
 17 18  1  0
 18 19  2  0
 19 20  1  0
 20 21  1  0
 21 22  1  0
 22 23  1  0
 23 24  1  0
 24 25  1  0
 25 26  1  0
 26 27  1  0
 26 28  2  0
 26 29  2  0
 25 30  1  0
 30 31  1  0
 20 32  2  0
 32 33  1  0
 11  6  1  0
 33 17  2  0
 31 22  1  0
  1 34  1  0
  1 35  1  0
  1 36  1  0
  2 37  1  0
  3 38  1  0
  3 39  1  0
  3 40  1  0
  4 41  1  0
  4 42  1  0
  7 43  1  0
  8 44  1  0
  9 45  1  0
 10 46  1  0
 18 47  1  0
 19 48  1  0
 22 49  1  0
 23 50  1  0
 23 51  1  0
 24 52  1  0
 24 53  1  0
 27 54  1  0
 27 55  1  0
 27 56  1  0
 30 57  1  0
 30 58  1  0
 31 59  1  0
 31 60  1  0
 32 61  1  0
 33 62  1  0
M  END
>  <QED>  (58) 
0.561

>  <MW>  (58) 
491.6

$$$$
CHEMBL3361046
     RDKit          3D

 62 64  0  0  0  0  0  0  0  0999 V2000
   -5.2194   -3.1429    0.2254 C   0  0  0  0  0  0  0  0  0  0  0  0
   -4.4713   -2.6015   -0.9951 C   0  0  0  0  0  0  0  0  0  0  0  0
   -5.4755   -2.0844   -2.0267 C   0  0  0  0  0  0  0  0  0  0  0  0
   -3.4799   -1.5093   -0.5562 C   0  0  0  0  0  0  0  0  0  0  0  0
   -2.5602   -1.1588   -1.6563 N   0  0  0  0  0  0  0  0  0  0  0  0
   -2.7123    0.1260   -2.3649 C   0  0  0  0  0  0  0  0  0  0  0  0
   -3.2048    1.2969   -1.5438 C   0  0  0  0  0  0  0  0  0  0  0  0
   -2.3852    1.8960   -0.5752 C   0  0  0  0  0  0  0  0  0  0  0  0
   -2.8513    2.9689    0.1878 C   0  0  0  0  0  0  0  0  0  0  0  0
   -4.1424    3.4567   -0.0082 C   0  0  0  0  0  0  0  0  0  0  0  0
   -4.9628    2.8693   -0.9679 C   0  0  0  0  0  0  0  0  0  0  0  0
   -6.5585    3.4658   -1.2087 Cl  0  0  0  0  0  0  0  0  0  0  0  0
   -4.5028    1.7979   -1.7338 C   0  0  0  0  0  0  0  0  0  0  0  0
   -1.1059   -1.9967   -1.8223 S   0  0  0  0  0  0  0  0  0  0  0  0
   -1.2412   -3.3053   -1.2191 O   0  0  0  0  0  0  0  0  0  0  0  0
   -0.6576   -1.8472   -3.1914 O   0  0  0  0  0  0  0  0  0  0  0  0
    0.0101   -1.0643   -0.7972 C   0  0  0  0  0  0  0  0  0  0  0  0
    0.8831   -0.1448   -1.3734 C   0  0  0  0  0  0  0  0  0  0  0  0
    1.7647    0.5811   -0.5607 C   0  0  0  0  0  0  0  0  0  0  0  0
    1.8259    0.3908    0.8303 C   0  0  0  0  0  0  0  0  0  0  0  0
    2.6815    1.1118    1.6646 N   0  0  0  0  0  0  0  0  0  0  0  0
    3.4195    0.3598    2.7146 C   0  0  0  0  0  0  0  0  0  0  0  0
    4.7493   -0.1909    2.1584 C   0  0  0  0  0  0  0  0  0  0  0  0
    5.5817    0.9186    1.5987 N   0  0  0  0  0  0  0  0  0  0  0  0
    7.2071    0.5844    1.2980 S   0  0  0  0  0  0  0  0  0  0  0  0
    7.1395   -0.5649   -0.0641 C   0  0  0  0  0  0  0  0  0  0  0  0
    7.8258    1.8019    0.8194 O   0  0  0  0  0  0  0  0  0  0  0  0
    7.7321   -0.1214    2.4468 O   0  0  0  0  0  0  0  0  0  0  0  0
    4.8499    1.7273    0.5763 C   0  0  0  0  0  0  0  0  0  0  0  0
    3.5023    2.2286    1.1389 C   0  0  0  0  0  0  0  0  0  0  0  0
    0.9261   -0.5474    1.3720 C   0  0  0  0  0  0  0  0  0  0  0  0
    0.0395   -1.2829    0.5759 C   0  0  0  0  0  0  0  0  0  0  0  0
   -4.5195   -3.5613    0.9564 H   0  0  0  0  0  0  0  0  0  0  0  0
   -5.7965   -2.3542    0.7202 H   0  0  0  0  0  0  0  0  0  0  0  0
   -5.9128   -3.9395   -0.0644 H   0  0  0  0  0  0  0  0  0  0  0  0
   -3.9231   -3.4360   -1.4486 H   0  0  0  0  0  0  0  0  0  0  0  0
   -6.2044   -2.8614   -2.2814 H   0  0  0  0  0  0  0  0  0  0  0  0
   -4.9756   -1.7928   -2.9548 H   0  0  0  0  0  0  0  0  0  0  0  0
   -6.0267   -1.2177   -1.6466 H   0  0  0  0  0  0  0  0  0  0  0  0
   -2.8967   -1.8622    0.3016 H   0  0  0  0  0  0  0  0  0  0  0  0
   -4.0320   -0.6437   -0.1813 H   0  0  0  0  0  0  0  0  0  0  0  0
   -1.7669    0.4370   -2.8249 H   0  0  0  0  0  0  0  0  0  0  0  0
   -3.3916   -0.0421   -3.2095 H   0  0  0  0  0  0  0  0  0  0  0  0
   -1.3757    1.5327   -0.4016 H   0  0  0  0  0  0  0  0  0  0  0  0
   -2.2059    3.4227    0.9364 H   0  0  0  0  0  0  0  0  0  0  0  0
   -4.5011    4.2911    0.5884 H   0  0  0  0  0  0  0  0  0  0  0  0
   -5.1597    1.3489   -2.4757 H   0  0  0  0  0  0  0  0  0  0  0  0
    0.8864    0.0230   -2.4484 H   0  0  0  0  0  0  0  0  0  0  0  0
    2.4116    1.2935   -1.0626 H   0  0  0  0  0  0  0  0  0  0  0  0
    3.6345    1.0522    3.5390 H   0  0  0  0  0  0  0  0  0  0  0  0
    2.8396   -0.4575    3.1524 H   0  0  0  0  0  0  0  0  0  0  0  0
    4.5488   -0.9283    1.3732 H   0  0  0  0  0  0  0  0  0  0  0  0
    5.2834   -0.6859    2.9755 H   0  0  0  0  0  0  0  0  0  0  0  0
    6.6620   -0.0858   -0.9196 H   0  0  0  0  0  0  0  0  0  0  0  0
    8.1672   -0.8312   -0.3226 H   0  0  0  0  0  0  0  0  0  0  0  0
    6.5984   -1.4606    0.2436 H   0  0  0  0  0  0  0  0  0  0  0  0
    5.4456    2.6004    0.2919 H   0  0  0  0  0  0  0  0  0  0  0  0
    4.6862    1.1142   -0.3156 H   0  0  0  0  0  0  0  0  0  0  0  0
    3.7050    2.9145    1.9724 H   0  0  0  0  0  0  0  0  0  0  0  0
    2.9587    2.8239    0.3970 H   0  0  0  0  0  0  0  0  0  0  0  0
    0.8753   -0.7028    2.4472 H   0  0  0  0  0  0  0  0  0  0  0  0
   -0.6216   -2.0099    1.0409 H   0  0  0  0  0  0  0  0  0  0  0  0
  1  2  1  0
  2  3  1  0
  2  4  1  0
  4  5  1  0
  5  6  1  0
  6  7  1  0
  7  8  2  0
  8  9  1  0
  9 10  2  0
 10 11  1  0
 11 12  1  0
 11 13  2  0
  5 14  1  0
 14 15  2  0
 14 16  2  0
 14 17  1  0
 17 18  1  0
 18 19  2  0
 19 20  1  0
 20 21  1  0
 21 22  1  0
 22 23  1  0
 23 24  1  0
 24 25  1  0
 25 26  1  0
 25 27  2  0
 25 28  2  0
 24 29  1  0
 29 30  1  0
 20 31  2  0
 31 32  1  0
 13  7  1  0
 32 17  2  0
 30 21  1  0
  1 33  1  0
  1 34  1  0
  1 35  1  0
  2 36  1  0
  3 37  1  0
  3 38  1  0
  3 39  1  0
  4 40  1  0
  4 41  1  0
  6 42  1  0
  6 43  1  0
  8 44  1  0
  9 45  1  0
 10 46  1  0
 13 47  1  0
 18 48  1  0
 19 49  1  0
 22 50  1  0
 22 51  1  0
 23 52  1  0
 23 53  1  0
 26 54  1  0
 26 55  1  0
 26 56  1  0
 29 57  1  0
 29 58  1  0
 30 59  1  0
 30 60  1  0
 31 61  1  0
 32 62  1  0
M  END
>  <QED>  (59) 
0.557

>  <MW>  (59) 
500.1

$$$$
CHEMBL3361045
     RDKit          3D

 62 64  0  0  0  0  0  0  0  0999 V2000
   -1.6242   -2.1616    1.6663 C   0  0  0  0  0  0  0  0  0  0  0  0
   -2.0619   -1.6021    0.3105 C   0  0  0  0  0  0  0  0  0  0  0  0
   -2.8109   -2.6792   -0.4755 C   0  0  0  0  0  0  0  0  0  0  0  0
   -2.9126   -0.3361    0.5204 C   0  0  0  0  0  0  0  0  0  0  0  0
   -3.1584    0.3584   -0.7705 N   0  0  0  0  0  0  0  0  0  0  0  0
   -4.5539    0.2987   -1.2987 C   0  0  0  0  0  0  0  0  0  0  0  0
   -5.6720    0.8497   -0.4353 C   0  0  0  0  0  0  0  0  0  0  0  0
   -6.3040   -0.0081    0.4898 C   0  0  0  0  0  0  0  0  0  0  0  0
   -7.3288    0.4439    1.3241 C   0  0  0  0  0  0  0  0  0  0  0  0
   -7.7582    1.7625    1.2419 C   0  0  0  0  0  0  0  0  0  0  0  0
   -7.1750    2.6192    0.3112 C   0  0  0  0  0  0  0  0  0  0  0  0
   -6.1489    2.1674   -0.5296 C   0  0  0  0  0  0  0  0  0  0  0  0
   -5.5782    3.2846   -1.7140 Cl  0  0  0  0  0  0  0  0  0  0  0  0
   -2.3596    1.8443   -1.0124 S   0  0  0  0  0  0  0  0  0  0  0  0
   -2.6926    2.7154    0.0948 O   0  0  0  0  0  0  0  0  0  0  0  0
   -2.5556    2.2519   -2.3874 O   0  0  0  0  0  0  0  0  0  0  0  0
   -0.6429    1.4048   -0.8640 C   0  0  0  0  0  0  0  0  0  0  0  0
   -0.0055    0.7729   -1.9290 C   0  0  0  0  0  0  0  0  0  0  0  0
    1.3479    0.4309   -1.8195 C   0  0  0  0  0  0  0  0  0  0  0  0
    2.0992    0.7185   -0.6663 C   0  0  0  0  0  0  0  0  0  0  0  0
    3.4353    0.3710   -0.5547 N   0  0  0  0  0  0  0  0  0  0  0  0
    4.0661   -0.6090   -1.4510 C   0  0  0  0  0  0  0  0  0  0  0  0
    5.2979   -1.2515   -0.7834 C   0  0  0  0  0  0  0  0  0  0  0  0
    6.3469   -0.2472   -0.3928 N   0  0  0  0  0  0  0  0  0  0  0  0
    7.3773   -0.7205    0.8765 S   0  0  0  0  0  0  0  0  0  0  0  0
    8.1763   -2.1606    0.1971 C   0  0  0  0  0  0  0  0  0  0  0  0
    6.5468   -1.1242    1.9899 O   0  0  0  0  0  0  0  0  0  0  0  0
    8.3814    0.3098    1.0329 O   0  0  0  0  0  0  0  0  0  0  0  0
    5.7793    1.1360   -0.2192 C   0  0  0  0  0  0  0  0  0  0  0  0
    4.3432    1.1210    0.3355 C   0  0  0  0  0  0  0  0  0  0  0  0
    1.4219    1.3720    0.3798 C   0  0  0  0  0  0  0  0  0  0  0  0
    0.0694    1.7228    0.2884 C   0  0  0  0  0  0  0  0  0  0  0  0
   -1.0428   -1.4194    2.2237 H   0  0  0  0  0  0  0  0  0  0  0  0
   -0.9939   -3.0478    1.5370 H   0  0  0  0  0  0  0  0  0  0  0  0
   -2.4880   -2.4458    2.2769 H   0  0  0  0  0  0  0  0  0  0  0  0
   -1.1562   -1.3507   -0.2510 H   0  0  0  0  0  0  0  0  0  0  0  0
   -2.2137   -3.5948   -0.5461 H   0  0  0  0  0  0  0  0  0  0  0  0
   -3.0178   -2.3489   -1.4979 H   0  0  0  0  0  0  0  0  0  0  0  0
   -3.7626   -2.9330    0.0034 H   0  0  0  0  0  0  0  0  0  0  0  0
   -2.4009    0.3371    1.2174 H   0  0  0  0  0  0  0  0  0  0  0  0
   -3.8403   -0.6067    1.0251 H   0  0  0  0  0  0  0  0  0  0  0  0
   -4.5933    0.7379   -2.3020 H   0  0  0  0  0  0  0  0  0  0  0  0
   -4.7758   -0.7589   -1.4966 H   0  0  0  0  0  0  0  0  0  0  0  0
   -6.0019   -1.0514    0.5654 H   0  0  0  0  0  0  0  0  0  0  0  0
   -7.7921   -0.2355    2.0355 H   0  0  0  0  0  0  0  0  0  0  0  0
   -8.5543    2.1216    1.8887 H   0  0  0  0  0  0  0  0  0  0  0  0
   -7.5318    3.6439    0.2349 H   0  0  0  0  0  0  0  0  0  0  0  0
   -0.5494    0.5449   -2.8429 H   0  0  0  0  0  0  0  0  0  0  0  0
    1.8116   -0.0466   -2.6782 H   0  0  0  0  0  0  0  0  0  0  0  0
    3.3688   -1.4192   -1.6955 H   0  0  0  0  0  0  0  0  0  0  0  0
    4.3586   -0.1159   -2.3860 H   0  0  0  0  0  0  0  0  0  0  0  0
    5.7512   -1.9605   -1.4846 H   0  0  0  0  0  0  0  0  0  0  0  0
    4.9630   -1.8099    0.0982 H   0  0  0  0  0  0  0  0  0  0  0  0
    8.6612   -1.8859   -0.7414 H   0  0  0  0  0  0  0  0  0  0  0  0
    8.9273   -2.4951    0.9164 H   0  0  0  0  0  0  0  0  0  0  0  0
    7.4381   -2.9494    0.0464 H   0  0  0  0  0  0  0  0  0  0  0  0
    6.4142    1.7472    0.4303 H   0  0  0  0  0  0  0  0  0  0  0  0
    5.7988    1.6201   -1.2039 H   0  0  0  0  0  0  0  0  0  0  0  0
    4.3268    0.6640    1.3316 H   0  0  0  0  0  0  0  0  0  0  0  0
    4.0219    2.1651    0.4317 H   0  0  0  0  0  0  0  0  0  0  0  0
    1.9380    1.6052    1.3081 H   0  0  0  0  0  0  0  0  0  0  0  0
   -0.4105    2.2328    1.1203 H   0  0  0  0  0  0  0  0  0  0  0  0
  1  2  1  0
  2  3  1  0
  2  4  1  0
  4  5  1  0
  5  6  1  0
  6  7  1  0
  7  8  2  0
  8  9  1  0
  9 10  2  0
 10 11  1  0
 11 12  2  0
 12 13  1  0
  5 14  1  0
 14 15  2  0
 14 16  2  0
 14 17  1  0
 17 18  1  0
 18 19  2  0
 19 20  1  0
 20 21  1  0
 21 22  1  0
 22 23  1  0
 23 24  1  0
 24 25  1  0
 25 26  1  0
 25 27  2  0
 25 28  2  0
 24 29  1  0
 29 30  1  0
 20 31  2  0
 31 32  1  0
 12  7  1  0
 32 17  2  0
 30 21  1  0
  1 33  1  0
  1 34  1  0
  1 35  1  0
  2 36  1  0
  3 37  1  0
  3 38  1  0
  3 39  1  0
  4 40  1  0
  4 41  1  0
  6 42  1  0
  6 43  1  0
  8 44  1  0
  9 45  1  0
 10 46  1  0
 11 47  1  0
 18 48  1  0
 19 49  1  0
 22 50  1  0
 22 51  1  0
 23 52  1  0
 23 53  1  0
 26 54  1  0
 26 55  1  0
 26 56  1  0
 29 57  1  0
 29 58  1  0
 30 59  1  0
 30 60  1  0
 31 61  1  0
 32 62  1  0
M  END
>  <QED>  (60) 
0.557

>  <MW>  (60) 
500.1

$$$$
CHEMBL3361047
     RDKit          3D

 62 64  0  0  0  0  0  0  0  0999 V2000
   -2.2524   -1.8346    2.7128 C   0  0  0  0  0  0  0  0  0  0  0  0
   -2.3207   -1.6464    1.1956 C   0  0  0  0  0  0  0  0  0  0  0  0
   -2.9287   -2.8909    0.5466 C   0  0  0  0  0  0  0  0  0  0  0  0
   -3.1150   -0.3704    0.8644 C   0  0  0  0  0  0  0  0  0  0  0  0
   -3.0214   -0.0506   -0.5848 N   0  0  0  0  0  0  0  0  0  0  0  0
   -4.2834   -0.2295   -1.3486 C   0  0  0  0  0  0  0  0  0  0  0  0
   -5.3969    0.7572   -1.0694 C   0  0  0  0  0  0  0  0  0  0  0  0
   -6.4162    0.4489   -0.1540 C   0  0  0  0  0  0  0  0  0  0  0  0
   -7.4432    1.3607    0.1041 C   0  0  0  0  0  0  0  0  0  0  0  0
   -7.4616    2.5876   -0.5541 C   0  0  0  0  0  0  0  0  0  0  0  0
   -8.7267    3.7094   -0.2359 Cl  0  0  0  0  0  0  0  0  0  0  0  0
   -6.4652    2.9077   -1.4714 C   0  0  0  0  0  0  0  0  0  0  0  0
   -5.4397    1.9945   -1.7305 C   0  0  0  0  0  0  0  0  0  0  0  0
   -2.0907    1.3036   -1.0259 S   0  0  0  0  0  0  0  0  0  0  0  0
   -2.5057    2.4292   -0.2163 O   0  0  0  0  0  0  0  0  0  0  0  0
   -2.0708    1.3919   -2.4717 O   0  0  0  0  0  0  0  0  0  0  0  0
   -0.4546    0.8359   -0.5189 C   0  0  0  0  0  0  0  0  0  0  0  0
    0.2667   -0.0705   -1.2921 C   0  0  0  0  0  0  0  0  0  0  0  0
    1.5592   -0.4423   -0.8997 C   0  0  0  0  0  0  0  0  0  0  0  0
    2.1703    0.0930    0.2464 C   0  0  0  0  0  0  0  0  0  0  0  0
    3.4497   -0.2656    0.6738 N   0  0  0  0  0  0  0  0  0  0  0  0
    4.1627   -1.4149    0.0727 C   0  0  0  0  0  0  0  0  0  0  0  0
    5.0197   -0.9959   -1.1453 C   0  0  0  0  0  0  0  0  0  0  0  0
    5.9248    0.1676   -0.8504 N   0  0  0  0  0  0  0  0  0  0  0  0
    7.4164   -0.1924   -0.1244 S   0  0  0  0  0  0  0  0  0  0  0  0
    8.3499   -0.7777   -1.5229 C   0  0  0  0  0  0  0  0  0  0  0  0
    7.2243   -1.2922    0.7940 O   0  0  0  0  0  0  0  0  0  0  0  0
    8.0189    1.0496    0.3089 O   0  0  0  0  0  0  0  0  0  0  0  0
    5.1548    1.2979   -0.2273 C   0  0  0  0  0  0  0  0  0  0  0  0
    4.3822    0.8379    1.0235 C   0  0  0  0  0  0  0  0  0  0  0  0
    1.4041    1.0011    1.0031 C   0  0  0  0  0  0  0  0  0  0  0  0
    0.1118    1.3846    0.6268 C   0  0  0  0  0  0  0  0  0  0  0  0
   -3.2523   -1.9510    3.1446 H   0  0  0  0  0  0  0  0  0  0  0  0
   -1.7740   -0.9729    3.1902 H   0  0  0  0  0  0  0  0  0  0  0  0
   -1.6666   -2.7238    2.9691 H   0  0  0  0  0  0  0  0  0  0  0  0
   -1.2939   -1.5475    0.8280 H   0  0  0  0  0  0  0  0  0  0  0  0
   -2.3807   -3.7913    0.8448 H   0  0  0  0  0  0  0  0  0  0  0  0
   -2.8825   -2.8296   -0.5451 H   0  0  0  0  0  0  0  0  0  0  0  0
   -3.9761   -3.0210    0.8390 H   0  0  0  0  0  0  0  0  0  0  0  0
   -2.7324    0.4652    1.4614 H   0  0  0  0  0  0  0  0  0  0  0  0
   -4.1558   -0.4978    1.1764 H   0  0  0  0  0  0  0  0  0  0  0  0
   -4.0618   -0.2324   -2.4235 H   0  0  0  0  0  0  0  0  0  0  0  0
   -4.6582   -1.2441   -1.1606 H   0  0  0  0  0  0  0  0  0  0  0  0
   -6.4218   -0.5072    0.3649 H   0  0  0  0  0  0  0  0  0  0  0  0
   -8.2232    1.1085    0.8173 H   0  0  0  0  0  0  0  0  0  0  0  0
   -6.4750    3.8646   -1.9865 H   0  0  0  0  0  0  0  0  0  0  0  0
   -4.6703    2.2630   -2.4529 H   0  0  0  0  0  0  0  0  0  0  0  0
   -0.1682   -0.4963   -2.1936 H   0  0  0  0  0  0  0  0  0  0  0  0
    2.0761   -1.1551   -1.5336 H   0  0  0  0  0  0  0  0  0  0  0  0
    3.4750   -2.2237   -0.1997 H   0  0  0  0  0  0  0  0  0  0  0  0
    4.8065   -1.8435    0.8482 H   0  0  0  0  0  0  0  0  0  0  0  0
    4.3745   -0.6972   -1.9798 H   0  0  0  0  0  0  0  0  0  0  0  0
    5.6027   -1.8505   -1.5029 H   0  0  0  0  0  0  0  0  0  0  0  0
    7.8951   -1.6902   -1.9099 H   0  0  0  0  0  0  0  0  0  0  0  0
    9.3653   -0.9908   -1.1810 H   0  0  0  0  0  0  0  0  0  0  0  0
    8.3738    0.0044   -2.2840 H   0  0  0  0  0  0  0  0  0  0  0  0
    5.8204    2.1313    0.0172 H   0  0  0  0  0  0  0  0  0  0  0  0
    4.4578    1.6805   -0.9836 H   0  0  0  0  0  0  0  0  0  0  0  0
    5.0846    0.4675    1.7801 H   0  0  0  0  0  0  0  0  0  0  0  0
    3.8783    1.6983    1.4738 H   0  0  0  0  0  0  0  0  0  0  0  0
    1.7989    1.4047    1.9329 H   0  0  0  0  0  0  0  0  0  0  0  0
   -0.4384    2.0939    1.2405 H   0  0  0  0  0  0  0  0  0  0  0  0
  1  2  1  0
  2  3  1  0
  2  4  1  0
  4  5  1  0
  5  6  1  0
  6  7  1  0
  7  8  1  0
  8  9  2  0
  9 10  1  0
 10 11  1  0
 10 12  2  0
 12 13  1  0
  5 14  1  0
 14 15  2  0
 14 16  2  0
 14 17  1  0
 17 18  1  0
 18 19  2  0
 19 20  1  0
 20 21  1  0
 21 22  1  0
 22 23  1  0
 23 24  1  0
 24 25  1  0
 25 26  1  0
 25 27  2  0
 25 28  2  0
 24 29  1  0
 29 30  1  0
 20 31  2  0
 31 32  1  0
 13  7  2  0
 32 17  2  0
 30 21  1  0
  1 33  1  0
  1 34  1  0
  1 35  1  0
  2 36  1  0
  3 37  1  0
  3 38  1  0
  3 39  1  0
  4 40  1  0
  4 41  1  0
  6 42  1  0
  6 43  1  0
  8 44  1  0
  9 45  1  0
 12 46  1  0
 13 47  1  0
 18 48  1  0
 19 49  1  0
 22 50  1  0
 22 51  1  0
 23 52  1  0
 23 53  1  0
 26 54  1  0
 26 55  1  0
 26 56  1  0
 29 57  1  0
 29 58  1  0
 30 59  1  0
 30 60  1  0
 31 61  1  0
 32 62  1  0
M  END
>  <QED>  (61) 
0.557

>  <MW>  (61) 
500.1

$$$$
CHEMBL3234030
     RDKit          3D

 46 50  0  0  0  0  0  0  0  0999 V2000
   -4.2991    2.5156   -0.3798 C   0  0  0  0  0  0  0  0  0  0  0  0
   -4.6345    1.1666    0.2350 C   0  0  0  0  0  0  0  0  0  0  0  0
   -3.4672    0.5126    0.7732 N   0  0  0  0  0  0  0  0  0  0  0  0
   -3.0022    0.6587    2.0755 C   0  0  0  0  0  0  0  0  0  0  0  0
   -3.4822    1.2802    3.0030 O   0  0  0  0  0  0  0  0  0  0  0  0
   -1.7437   -0.1141    2.1246 C   0  0  0  0  0  0  0  0  0  0  0  0
   -0.8566   -0.3319    3.1569 C   0  0  0  0  0  0  0  0  0  0  0  0
    0.2699   -1.1119    2.8769 C   0  0  0  0  0  0  0  0  0  0  0  0
    0.4859   -1.6462    1.5839 C   0  0  0  0  0  0  0  0  0  0  0  0
   -0.4288   -1.4151    0.5124 C   0  0  0  0  0  0  0  0  0  0  0  0
   -0.4255   -1.8038   -0.8614 C   0  0  0  0  0  0  0  0  0  0  0  0
    0.9053   -2.7574   -1.5583 S   0  0  0  0  0  0  0  0  0  0  0  0
    1.5226   -3.5716   -0.5361 O   0  0  0  0  0  0  0  0  0  0  0  0
    0.4095   -3.3727   -2.7732 O   0  0  0  0  0  0  0  0  0  0  0  0
    1.9887   -1.5638   -2.0793 N   0  0  0  0  0  0  0  0  0  0  0  0
    2.7899   -0.8975   -1.1020 C   0  0  0  0  0  0  0  0  0  0  0  0
    3.8810   -1.5716   -0.5490 C   0  0  0  0  0  0  0  0  0  0  0  0
    4.6452   -0.9631    0.4431 C   0  0  0  0  0  0  0  0  0  0  0  0
    4.3245    0.3218    0.8825 C   0  0  0  0  0  0  0  0  0  0  0  0
    3.2437    1.0241    0.3248 C   0  0  0  0  0  0  0  0  0  0  0  0
    2.9166    2.3153    0.7578 C   0  0  0  0  0  0  0  0  0  0  0  0
    1.8486    2.9707    0.1672 C   0  0  0  0  0  0  0  0  0  0  0  0
    1.0999    2.4422   -0.8190 N   0  0  0  0  0  0  0  0  0  0  0  0
    1.4295    1.1921   -1.2221 C   0  0  0  0  0  0  0  0  0  0  0  0
    2.4726    0.4195   -0.6897 C   0  0  0  0  0  0  0  0  0  0  0  0
   -1.4880   -1.4343   -1.7318 C   0  0  0  0  0  0  0  0  0  0  0  0
   -2.5624   -0.6539   -1.2799 C   0  0  0  0  0  0  0  0  0  0  0  0
   -2.5556   -0.2631    0.0410 C   0  0  0  0  0  0  0  0  0  0  0  0
   -1.5298   -0.6379    0.8736 C   0  0  0  0  0  0  0  0  0  0  0  0
   -3.5957    2.4077   -1.2118 H   0  0  0  0  0  0  0  0  0  0  0  0
   -3.8410    3.1810    0.3596 H   0  0  0  0  0  0  0  0  0  0  0  0
   -5.2057    2.9968   -0.7590 H   0  0  0  0  0  0  0  0  0  0  0  0
   -5.1122    0.5118   -0.5013 H   0  0  0  0  0  0  0  0  0  0  0  0
   -5.3491    1.3178    1.0522 H   0  0  0  0  0  0  0  0  0  0  0  0
   -1.0311    0.0877    4.1417 H   0  0  0  0  0  0  0  0  0  0  0  0
    0.9959   -1.3110    3.6630 H   0  0  0  0  0  0  0  0  0  0  0  0
    1.3847   -2.2397    1.4330 H   0  0  0  0  0  0  0  0  0  0  0  0
    2.4412   -1.8336   -2.9531 H   0  0  0  0  0  0  0  0  0  0  0  0
    4.1275   -2.5825   -0.8651 H   0  0  0  0  0  0  0  0  0  0  0  0
    5.4858   -1.4944    0.8836 H   0  0  0  0  0  0  0  0  0  0  0  0
    4.9306    0.7746    1.6653 H   0  0  0  0  0  0  0  0  0  0  0  0
    3.4798    2.8101    1.5423 H   0  0  0  0  0  0  0  0  0  0  0  0
    1.5638    3.9712    0.4806 H   0  0  0  0  0  0  0  0  0  0  0  0
    0.8038    0.8125   -2.0256 H   0  0  0  0  0  0  0  0  0  0  0  0
   -1.4750   -1.7472   -2.7756 H   0  0  0  0  0  0  0  0  0  0  0  0
   -3.3608   -0.3720   -1.9569 H   0  0  0  0  0  0  0  0  0  0  0  0
  1  2  1  0
  2  3  1  0
  3  4  1  0
  4  5  2  0
  4  6  1  0
  6  7  1  0
  7  8  2  0
  8  9  1  0
  9 10  2  0
 10 11  1  0
 11 12  1  0
 12 13  2  0
 12 14  2  0
 12 15  1  0
 15 16  1  0
 16 17  2  0
 17 18  1  0
 18 19  2  0
 19 20  1  0
 20 21  2  0
 21 22  1  0
 22 23  2  0
 23 24  1  0
 24 25  2  0
 11 26  2  0
 26 27  1  0
 27 28  2  0
 28 29  1  0
 28  3  1  0
 29  6  2  0
 29 10  1  0
 25 16  1  0
 25 20  1  0
  1 30  1  0
  1 31  1  0
  1 32  1  0
  2 33  1  0
  2 34  1  0
  7 35  1  0
  8 36  1  0
  9 37  1  0
 15 38  1  0
 17 39  1  0
 18 40  1  0
 19 41  1  0
 21 42  1  0
 22 43  1  0
 24 44  1  0
 26 45  1  0
 27 46  1  0
M  END
>  <QED>  (62) 
0.555

>  <MW>  (62) 
403.5

$$$$
CHEMBL3361036
     RDKit          3D

 65 67  0  0  0  0  0  0  0  0999 V2000
   -3.0895   -2.2141   -2.5483 C   0  0  0  0  0  0  0  0  0  0  0  0
   -3.1870   -0.7418   -2.1332 C   0  0  0  0  0  0  0  0  0  0  0  0
   -4.6304   -0.2631   -2.2814 C   0  0  0  0  0  0  0  0  0  0  0  0
   -2.6596   -0.5770   -0.7008 C   0  0  0  0  0  0  0  0  0  0  0  0
   -2.7219    0.8078   -0.1536 N   0  0  0  0  0  0  0  0  0  0  0  0
   -2.7293    0.8314    1.3444 C   0  0  0  0  0  0  0  0  0  0  0  0
   -4.0316    1.4390    1.8770 C   0  0  0  0  0  0  0  0  0  0  0  0
   -5.2279    0.5260    1.7465 C   0  0  0  0  0  0  0  0  0  0  0  0
   -6.2277    0.7998    0.8050 C   0  0  0  0  0  0  0  0  0  0  0  0
   -7.3350   -0.0409    0.6823 C   0  0  0  0  0  0  0  0  0  0  0  0
   -7.4540   -1.1628    1.4999 C   0  0  0  0  0  0  0  0  0  0  0  0
   -6.4674   -1.4432    2.4431 C   0  0  0  0  0  0  0  0  0  0  0  0
   -5.3601   -0.6026    2.5680 C   0  0  0  0  0  0  0  0  0  0  0  0
   -1.8401    2.0667   -0.8999 S   0  0  0  0  0  0  0  0  0  0  0  0
   -2.1141    2.0778   -2.3200 O   0  0  0  0  0  0  0  0  0  0  0  0
   -2.0328    3.2673   -0.1111 O   0  0  0  0  0  0  0  0  0  0  0  0
   -0.1430    1.5647   -0.6959 C   0  0  0  0  0  0  0  0  0  0  0  0
    0.5948    2.0138    0.3956 C   0  0  0  0  0  0  0  0  0  0  0  0
    1.9359    1.6323    0.5278 C   0  0  0  0  0  0  0  0  0  0  0  0
    2.5816    0.8212   -0.4229 C   0  0  0  0  0  0  0  0  0  0  0  0
    3.9062    0.4468   -0.2726 N   0  0  0  0  0  0  0  0  0  0  0  0
    4.4974   -0.6641   -1.0336 C   0  0  0  0  0  0  0  0  0  0  0  0
    5.7101   -1.2569   -0.2892 C   0  0  0  0  0  0  0  0  0  0  0  0
    6.7953   -0.2479   -0.0331 N   0  0  0  0  0  0  0  0  0  0  0  0
    7.8099   -0.5841    1.2918 S   0  0  0  0  0  0  0  0  0  0  0  0
    8.5563   -2.1293    0.8131 C   0  0  0  0  0  0  0  0  0  0  0  0
    6.9662   -0.8060    2.4458 O   0  0  0  0  0  0  0  0  0  0  0  0
    8.8499    0.4219    1.3132 O   0  0  0  0  0  0  0  0  0  0  0  0
    6.2785    1.1655   -0.0474 C   0  0  0  0  0  0  0  0  0  0  0  0
    4.8464    1.2769    0.5066 C   0  0  0  0  0  0  0  0  0  0  0  0
    1.8110    0.4107   -1.5243 C   0  0  0  0  0  0  0  0  0  0  0  0
    0.4687    0.7824   -1.6729 C   0  0  0  0  0  0  0  0  0  0  0  0
   -2.0546   -2.5670   -2.4860 H   0  0  0  0  0  0  0  0  0  0  0  0
   -3.7055   -2.8521   -1.9052 H   0  0  0  0  0  0  0  0  0  0  0  0
   -3.4263   -2.3497   -3.5816 H   0  0  0  0  0  0  0  0  0  0  0  0
   -2.5613   -0.1819   -2.8327 H   0  0  0  0  0  0  0  0  0  0  0  0
   -4.9747   -0.3899   -3.3135 H   0  0  0  0  0  0  0  0  0  0  0  0
   -4.7284    0.7976   -2.0321 H   0  0  0  0  0  0  0  0  0  0  0  0
   -5.3034   -0.8336   -1.6337 H   0  0  0  0  0  0  0  0  0  0  0  0
   -3.2614   -1.2290   -0.0531 H   0  0  0  0  0  0  0  0  0  0  0  0
   -1.6309   -0.9469   -0.6237 H   0  0  0  0  0  0  0  0  0  0  0  0
   -2.5675   -0.1735    1.7519 H   0  0  0  0  0  0  0  0  0  0  0  0
   -1.8910    1.4268    1.7189 H   0  0  0  0  0  0  0  0  0  0  0  0
   -4.2354    2.3966    1.3824 H   0  0  0  0  0  0  0  0  0  0  0  0
   -3.9056    1.6735    2.9420 H   0  0  0  0  0  0  0  0  0  0  0  0
   -6.1448    1.6680    0.1538 H   0  0  0  0  0  0  0  0  0  0  0  0
   -8.1029    0.1804   -0.0543 H   0  0  0  0  0  0  0  0  0  0  0  0
   -8.3172   -1.8158    1.4037 H   0  0  0  0  0  0  0  0  0  0  0  0
   -6.5633   -2.3148    3.0852 H   0  0  0  0  0  0  0  0  0  0  0  0
   -4.6047   -0.8313    3.3159 H   0  0  0  0  0  0  0  0  0  0  0  0
    0.1465    2.6590    1.1473 H   0  0  0  0  0  0  0  0  0  0  0  0
    2.4692    1.9745    1.4116 H   0  0  0  0  0  0  0  0  0  0  0  0
    4.8011   -0.3083   -2.0256 H   0  0  0  0  0  0  0  0  0  0  0  0
    3.7708   -1.4741   -1.1689 H   0  0  0  0  0  0  0  0  0  0  0  0
    6.1350   -2.0665   -0.8925 H   0  0  0  0  0  0  0  0  0  0  0  0
    5.3606   -1.6843    0.6576 H   0  0  0  0  0  0  0  0  0  0  0  0
    9.2952   -2.3918    1.5736 H   0  0  0  0  0  0  0  0  0  0  0  0
    7.7901   -2.9042    0.7653 H   0  0  0  0  0  0  0  0  0  0  0  0
    9.0501   -1.9991   -0.1516 H   0  0  0  0  0  0  0  0  0  0  0  0
    6.3088    1.5112   -1.0885 H   0  0  0  0  0  0  0  0  0  0  0  0
    6.9390    1.8356    0.5122 H   0  0  0  0  0  0  0  0  0  0  0  0
    4.8203    0.9594    1.5554 H   0  0  0  0  0  0  0  0  0  0  0  0
    4.5628    2.3353    0.4613 H   0  0  0  0  0  0  0  0  0  0  0  0
    2.2531   -0.1871   -2.3168 H   0  0  0  0  0  0  0  0  0  0  0  0
   -0.0803    0.4646   -2.5562 H   0  0  0  0  0  0  0  0  0  0  0  0
  1  2  1  0
  2  3  1  0
  2  4  1  0
  4  5  1  0
  5  6  1  0
  6  7  1  0
  7  8  1  0
  8  9  2  0
  9 10  1  0
 10 11  2  0
 11 12  1  0
 12 13  2  0
  5 14  1  0
 14 15  2  0
 14 16  2  0
 14 17  1  0
 17 18  1  0
 18 19  2  0
 19 20  1  0
 20 21  1  0
 21 22  1  0
 22 23  1  0
 23 24  1  0
 24 25  1  0
 25 26  1  0
 25 27  2  0
 25 28  2  0
 24 29  1  0
 29 30  1  0
 20 31  2  0
 31 32  1  0
 13  8  1  0
 32 17  2  0
 30 21  1  0
  1 33  1  0
  1 34  1  0
  1 35  1  0
  2 36  1  0
  3 37  1  0
  3 38  1  0
  3 39  1  0
  4 40  1  0
  4 41  1  0
  6 42  1  0
  6 43  1  0
  7 44  1  0
  7 45  1  0
  9 46  1  0
 10 47  1  0
 11 48  1  0
 12 49  1  0
 13 50  1  0
 18 51  1  0
 19 52  1  0
 22 53  1  0
 22 54  1  0
 23 55  1  0
 23 56  1  0
 26 57  1  0
 26 58  1  0
 26 59  1  0
 29 60  1  0
 29 61  1  0
 30 62  1  0
 30 63  1  0
 31 64  1  0
 32 65  1  0
M  END
>  <QED>  (63) 
0.553

>  <MW>  (63) 
479.7

$$$$
CHEMBL3314015
     RDKit          3D

 57 59  0  0  0  0  0  0  0  0999 V2000
    9.0453    0.6904    1.5435 C   0  0  0  0  0  0  0  0  0  0  0  0
    7.8539   -0.0535    0.9740 C   0  0  0  0  0  0  0  0  0  0  0  0
    6.4458    1.0223    0.7734 S   0  0  0  0  0  0  0  0  0  0  0  0
    5.9861    1.4348    2.0857 O   0  0  0  0  0  0  0  0  0  0  0  0
    6.7576    2.0031   -0.2493 O   0  0  0  0  0  0  0  0  0  0  0  0
    5.2072   -0.0636    0.1006 C   0  0  0  0  0  0  0  0  0  0  0  0
    4.3975   -0.8019    0.9656 C   0  0  0  0  0  0  0  0  0  0  0  0
    3.4187   -1.6443    0.4370 C   0  0  0  0  0  0  0  0  0  0  0  0
    3.2320   -1.7367   -0.9514 C   0  0  0  0  0  0  0  0  0  0  0  0
    2.1628   -2.6431   -1.5208 C   0  0  0  0  0  0  0  0  0  0  0  0
    0.7541   -2.3495   -1.0190 C   0  0  0  0  0  0  0  0  0  0  0  0
    0.0533   -3.2588   -0.5830 O   0  0  0  0  0  0  0  0  0  0  0  0
    0.3858   -1.0221   -1.1618 N   0  0  0  0  0  0  0  0  0  0  0  0
   -0.8482   -0.4257   -0.8323 C   0  0  0  0  0  0  0  0  0  0  0  0
   -0.9532    0.9516   -1.0030 C   0  0  0  0  0  0  0  0  0  0  0  0
   -2.1481    1.6083   -0.7044 C   0  0  0  0  0  0  0  0  0  0  0  0
   -3.2791    0.9169   -0.2232 C   0  0  0  0  0  0  0  0  0  0  0  0
   -4.4801    1.7214    0.0384 C   0  0  0  0  0  0  0  0  0  0  0  0
   -5.4784    1.8652   -0.9367 C   0  0  0  0  0  0  0  0  0  0  0  0
   -6.6004    2.6629   -0.7000 C   0  0  0  0  0  0  0  0  0  0  0  0
   -6.7318    3.3400    0.5106 C   0  0  0  0  0  0  0  0  0  0  0  0
   -5.7402    3.2254    1.4824 C   0  0  0  0  0  0  0  0  0  0  0  0
   -4.6190    2.4270    1.2450 C   0  0  0  0  0  0  0  0  0  0  0  0
   -3.1840   -0.4805   -0.0346 C   0  0  0  0  0  0  0  0  0  0  0  0
   -4.3011   -1.3957    0.4690 C   0  0  0  0  0  0  0  0  0  0  0  0
   -5.0424   -0.9204    1.7196 C   0  0  0  0  0  0  0  0  0  0  0  0
   -5.2780   -1.7645   -0.6494 C   0  0  0  0  0  0  0  0  0  0  0  0
   -1.9590   -1.1245   -0.3571 C   0  0  0  0  0  0  0  0  0  0  0  0
    4.0511   -0.9832   -1.8059 C   0  0  0  0  0  0  0  0  0  0  0  0
    5.0337   -0.1412   -1.2828 C   0  0  0  0  0  0  0  0  0  0  0  0
    8.8119    1.1164    2.5245 H   0  0  0  0  0  0  0  0  0  0  0  0
    9.8971    0.0132    1.6588 H   0  0  0  0  0  0  0  0  0  0  0  0
    9.3482    1.5118    0.8863 H   0  0  0  0  0  0  0  0  0  0  0  0
    8.0989   -0.4668   -0.0090 H   0  0  0  0  0  0  0  0  0  0  0  0
    7.5591   -0.8665    1.6440 H   0  0  0  0  0  0  0  0  0  0  0  0
    4.5139   -0.7244    2.0448 H   0  0  0  0  0  0  0  0  0  0  0  0
    2.7927   -2.2215    1.1174 H   0  0  0  0  0  0  0  0  0  0  0  0
    2.4176   -3.6789   -1.2649 H   0  0  0  0  0  0  0  0  0  0  0  0
    2.1400   -2.5821   -2.6157 H   0  0  0  0  0  0  0  0  0  0  0  0
    1.1049   -0.3874   -1.4884 H   0  0  0  0  0  0  0  0  0  0  0  0
   -0.1159    1.5394   -1.3690 H   0  0  0  0  0  0  0  0  0  0  0  0
   -2.2013    2.6865   -0.8538 H   0  0  0  0  0  0  0  0  0  0  0  0
   -5.3818    1.3535   -1.8920 H   0  0  0  0  0  0  0  0  0  0  0  0
   -7.3684    2.7578   -1.4630 H   0  0  0  0  0  0  0  0  0  0  0  0
   -7.6046    3.9610    0.6946 H   0  0  0  0  0  0  0  0  0  0  0  0
   -5.8370    3.7574    2.4251 H   0  0  0  0  0  0  0  0  0  0  0  0
   -3.8498    2.3483    2.0107 H   0  0  0  0  0  0  0  0  0  0  0  0
   -3.8254   -2.3373    0.7794 H   0  0  0  0  0  0  0  0  0  0  0  0
   -5.5920   -1.7559    2.1688 H   0  0  0  0  0  0  0  0  0  0  0  0
   -4.3479   -0.5369    2.4744 H   0  0  0  0  0  0  0  0  0  0  0  0
   -5.7843   -0.1495    1.4981 H   0  0  0  0  0  0  0  0  0  0  0  0
   -5.8673   -0.9065   -0.9818 H   0  0  0  0  0  0  0  0  0  0  0  0
   -4.7481   -2.1635   -1.5214 H   0  0  0  0  0  0  0  0  0  0  0  0
   -5.9807   -2.5322   -0.3069 H   0  0  0  0  0  0  0  0  0  0  0  0
   -1.9020   -2.2020   -0.2270 H   0  0  0  0  0  0  0  0  0  0  0  0
    3.9290   -1.0427   -2.8862 H   0  0  0  0  0  0  0  0  0  0  0  0
    5.6514    0.4487   -1.9572 H   0  0  0  0  0  0  0  0  0  0  0  0
  1  2  1  0
  2  3  1  0
  3  4  2  0
  3  5  2  0
  3  6  1  0
  6  7  1  0
  7  8  2  0
  8  9  1  0
  9 10  1  0
 10 11  1  0
 11 12  2  0
 11 13  1  0
 13 14  1  0
 14 15  1  0
 15 16  2  0
 16 17  1  0
 17 18  1  0
 18 19  2  0
 19 20  1  0
 20 21  2  0
 21 22  1  0
 22 23  2  0
 17 24  2  0
 24 25  1  0
 25 26  1  0
 25 27  1  0
 24 28  1  0
  9 29  2  0
 29 30  1  0
 30  6  2  0
 28 14  2  0
 23 18  1  0
  1 31  1  0
  1 32  1  0
  1 33  1  0
  2 34  1  0
  2 35  1  0
  7 36  1  0
  8 37  1  0
 10 38  1  0
 10 39  1  0
 13 40  1  0
 15 41  1  0
 16 42  1  0
 19 43  1  0
 20 44  1  0
 21 45  1  0
 22 46  1  0
 23 47  1  0
 25 48  1  0
 26 49  1  0
 26 50  1  0
 26 51  1  0
 27 52  1  0
 27 53  1  0
 27 54  1  0
 28 55  1  0
 29 56  1  0
 30 57  1  0
M  END
>  <QED>  (64) 
0.552

>  <MW>  (64) 
421.6

$$$$
CHEMBL3314021
     RDKit          3D

 69 71  0  0  0  0  0  0  0  0999 V2000
   -3.1191    4.3604   -2.3565 C   0  0  0  0  0  0  0  0  0  0  0  0
   -3.8759    3.8533   -1.1385 C   0  0  0  0  0  0  0  0  0  0  0  0
   -3.6147    2.3901   -0.8865 C   0  0  0  0  0  0  0  0  0  0  0  0
   -2.5321    1.9873   -0.0948 C   0  0  0  0  0  0  0  0  0  0  0  0
   -2.2768    0.6304    0.1186 C   0  0  0  0  0  0  0  0  0  0  0  0
   -3.1069   -0.3397   -0.4505 C   0  0  0  0  0  0  0  0  0  0  0  0
   -2.8345   -1.7455   -0.3054 N   0  0  0  0  0  0  0  0  0  0  0  0
   -2.5615   -2.2576    1.0624 C   0  0  0  0  0  0  0  0  0  0  0  0
   -3.5720   -3.3578    1.4326 C   0  0  0  0  0  0  0  0  0  0  0  0
   -4.9896   -2.7985    1.5757 C   0  0  0  0  0  0  0  0  0  0  0  0
   -3.1477   -4.0369    2.7361 C   0  0  0  0  0  0  0  0  0  0  0  0
   -1.9854   -2.4841   -1.6009 S   0  0  0  0  0  0  0  0  0  0  0  0
   -2.5993   -2.1059   -2.8580 O   0  0  0  0  0  0  0  0  0  0  0  0
   -1.7892   -3.8842   -1.2770 O   0  0  0  0  0  0  0  0  0  0  0  0
   -0.3787   -1.7102   -1.5431 C   0  0  0  0  0  0  0  0  0  0  0  0
   -0.1427   -0.5606   -2.2919 C   0  0  0  0  0  0  0  0  0  0  0  0
    1.1171    0.0340   -2.2506 C   0  0  0  0  0  0  0  0  0  0  0  0
    2.1682   -0.5129   -1.4821 C   0  0  0  0  0  0  0  0  0  0  0  0
    3.5113    0.2088   -1.4669 C   0  0  0  0  0  0  0  0  0  0  0  0
    3.8219    0.5982   -2.8143 O   0  0  0  0  0  0  0  0  0  0  0  0
    3.4998    1.4801   -0.5693 C   0  0  0  0  0  0  0  0  0  0  0  0
    3.6996    1.2281    0.8735 N   0  0  0  0  0  0  0  0  0  0  0  0
    5.0991    0.8240    1.1607 C   0  0  0  0  0  0  0  0  0  0  0  0
    5.5063    1.1390    2.6083 C   0  0  0  0  0  0  0  0  0  0  0  0
    5.4987    2.5459    2.8860 O   0  0  0  0  0  0  0  0  0  0  0  0
    4.5314    3.2674    2.1119 C   0  0  0  0  0  0  0  0  0  0  0  0
    3.3304    2.4058    1.6928 C   0  0  0  0  0  0  0  0  0  0  0  0
    1.9271   -1.7000   -0.7503 C   0  0  0  0  0  0  0  0  0  0  0  0
    2.9953   -2.3794    0.0709 C   0  0  0  0  0  0  0  0  0  0  0  0
    4.0125   -2.9151   -0.7641 O   0  0  0  0  0  0  0  0  0  0  0  0
    0.6510   -2.2944   -0.8002 C   0  0  0  0  0  0  0  0  0  0  0  0
   -4.1722    0.0568   -1.2589 C   0  0  0  0  0  0  0  0  0  0  0  0
   -4.4284    1.4129   -1.4731 C   0  0  0  0  0  0  0  0  0  0  0  0
   -3.4132    3.8177   -3.2613 H   0  0  0  0  0  0  0  0  0  0  0  0
   -3.3270    5.4232   -2.5157 H   0  0  0  0  0  0  0  0  0  0  0  0
   -2.0375    4.2414   -2.2305 H   0  0  0  0  0  0  0  0  0  0  0  0
   -3.5895    4.4359   -0.2544 H   0  0  0  0  0  0  0  0  0  0  0  0
   -4.9516    4.0184   -1.2751 H   0  0  0  0  0  0  0  0  0  0  0  0
   -1.8739    2.7289    0.3525 H   0  0  0  0  0  0  0  0  0  0  0  0
   -1.4161    0.3467    0.7173 H   0  0  0  0  0  0  0  0  0  0  0  0
   -2.6203   -1.4543    1.8070 H   0  0  0  0  0  0  0  0  0  0  0  0
   -1.5383   -2.6431    1.1231 H   0  0  0  0  0  0  0  0  0  0  0  0
   -3.5906   -4.1221    0.6468 H   0  0  0  0  0  0  0  0  0  0  0  0
   -5.3501   -2.3847    0.6289 H   0  0  0  0  0  0  0  0  0  0  0  0
   -5.0305   -2.0065    2.3312 H   0  0  0  0  0  0  0  0  0  0  0  0
   -5.6886   -3.5868    1.8753 H   0  0  0  0  0  0  0  0  0  0  0  0
   -3.1194   -3.3227    3.5661 H   0  0  0  0  0  0  0  0  0  0  0  0
   -2.1517   -4.4812    2.6362 H   0  0  0  0  0  0  0  0  0  0  0  0
   -3.8447   -4.8386    3.0023 H   0  0  0  0  0  0  0  0  0  0  0  0
   -0.9285   -0.1182   -2.9010 H   0  0  0  0  0  0  0  0  0  0  0  0
    1.2887    0.9356   -2.8382 H   0  0  0  0  0  0  0  0  0  0  0  0
    4.3172   -0.4668   -1.1727 H   0  0  0  0  0  0  0  0  0  0  0  0
    4.7757    0.7843   -2.8384 H   0  0  0  0  0  0  0  0  0  0  0  0
    4.2547    2.1920   -0.9311 H   0  0  0  0  0  0  0  0  0  0  0  0
    2.5376    1.9874   -0.7217 H   0  0  0  0  0  0  0  0  0  0  0  0
    5.7941    1.3527    0.4952 H   0  0  0  0  0  0  0  0  0  0  0  0
    5.2168   -0.2484    0.9803 H   0  0  0  0  0  0  0  0  0  0  0  0
    6.5199    0.7735    2.8022 H   0  0  0  0  0  0  0  0  0  0  0  0
    4.8391    0.6412    3.3218 H   0  0  0  0  0  0  0  0  0  0  0  0
    5.0378    3.6812    1.2322 H   0  0  0  0  0  0  0  0  0  0  0  0
    4.1932    4.1131    2.7193 H   0  0  0  0  0  0  0  0  0  0  0  0
    2.5753    3.0275    1.1980 H   0  0  0  0  0  0  0  0  0  0  0  0
    2.8530    2.0187    2.6022 H   0  0  0  0  0  0  0  0  0  0  0  0
    2.5777   -3.2076    0.6535 H   0  0  0  0  0  0  0  0  0  0  0  0
    3.4381   -1.6854    0.7881 H   0  0  0  0  0  0  0  0  0  0  0  0
    3.6143   -3.0809   -1.6374 H   0  0  0  0  0  0  0  0  0  0  0  0
    0.4627   -3.2208   -0.2592 H   0  0  0  0  0  0  0  0  0  0  0  0
   -4.8045   -0.6902   -1.7332 H   0  0  0  0  0  0  0  0  0  0  0  0
   -5.2627    1.6993   -2.1099 H   0  0  0  0  0  0  0  0  0  0  0  0
  1  2  1  0
  2  3  1  0
  3  4  1  0
  4  5  2  0
  5  6  1  0
  6  7  1  0
  7  8  1  0
  8  9  1  0
  9 10  1  0
  9 11  1  0
  7 12  1  0
 12 13  2  0
 12 14  2  0
 12 15  1  0
 15 16  1  0
 16 17  2  0
 17 18  1  0
 18 19  1  0
 19 20  1  0
 19 21  1  0
 21 22  1  0
 22 23  1  0
 23 24  1  0
 24 25  1  0
 25 26  1  0
 26 27  1  0
 18 28  2  0
 28 29  1  0
 29 30  1  0
 28 31  1  0
  6 32  2  0
 32 33  1  0
 33  3  2  0
 31 15  2  0
 27 22  1  0
  1 34  1  0
  1 35  1  0
  1 36  1  0
  2 37  1  0
  2 38  1  0
  4 39  1  0
  5 40  1  0
  8 41  1  0
  8 42  1  0
  9 43  1  0
 10 44  1  0
 10 45  1  0
 10 46  1  0
 11 47  1  0
 11 48  1  0
 11 49  1  0
 16 50  1  0
 17 51  1  0
 19 52  1  0
 20 53  1  0
 21 54  1  0
 21 55  1  0
 23 56  1  0
 23 57  1  0
 24 58  1  0
 24 59  1  0
 26 60  1  0
 26 61  1  0
 27 62  1  0
 27 63  1  0
 29 64  1  0
 29 65  1  0
 30 66  1  0
 31 67  1  0
 32 68  1  0
 33 69  1  0
M  END
>  <QED>  (65) 
0.548

>  <MW>  (65) 
476.6

$$$$
CHEMBL3596600
     RDKit          3D

 50 53  0  0  0  0  0  0  0  0999 V2000
    8.1666   -1.7753    1.6409 C   0  0  0  0  0  0  0  0  0  0  0  0
    7.2914   -0.7506    1.1281 N   0  0  0  0  0  0  0  0  0  0  0  0
    6.0711   -1.0883    0.5783 C   0  0  0  0  0  0  0  0  0  0  0  0
    5.6914   -2.2428    0.4243 O   0  0  0  0  0  0  0  0  0  0  0  0
    5.1845    0.0457    0.1994 C   0  0  0  0  0  0  0  0  0  0  0  0
    5.7005    1.2763   -0.2176 C   0  0  0  0  0  0  0  0  0  0  0  0
    4.8304    2.3088   -0.5726 C   0  0  0  0  0  0  0  0  0  0  0  0
    3.4446    2.1162   -0.5196 C   0  0  0  0  0  0  0  0  0  0  0  0
    2.4406    3.4541   -0.9638 Cl  0  0  0  0  0  0  0  0  0  0  0  0
    2.9035    0.8808   -0.1160 C   0  0  0  0  0  0  0  0  0  0  0  0
    1.4591    0.6233   -0.0493 C   0  0  0  0  0  0  0  0  0  0  0  0
    0.7892    0.6001    1.1737 C   0  0  0  0  0  0  0  0  0  0  0  0
   -0.5904    0.3548    1.2379 C   0  0  0  0  0  0  0  0  0  0  0  0
   -1.3556    0.1133    0.0881 C   0  0  0  0  0  0  0  0  0  0  0  0
   -0.6729    0.1198   -1.1490 C   0  0  0  0  0  0  0  0  0  0  0  0
    0.7125    0.3819   -1.2058 C   0  0  0  0  0  0  0  0  0  0  0  0
   -1.3830   -0.1090   -2.4557 C   0  0  0  0  0  0  0  0  0  0  0  0
   -2.6620   -0.8854   -2.2386 C   0  0  0  0  0  0  0  0  0  0  0  0
   -3.4789   -0.1962   -1.1636 C   0  0  0  0  0  0  0  0  0  0  0  0
   -2.7853   -0.1174    0.1318 N   0  0  0  0  0  0  0  0  0  0  0  0
   -3.5158   -0.1636    1.3375 C   0  0  0  0  0  0  0  0  0  0  0  0
   -3.0755   -0.2109    2.4833 O   0  0  0  0  0  0  0  0  0  0  0  0
   -4.9837   -0.1548    1.2660 C   0  0  0  0  0  0  0  0  0  0  0  0
   -5.6309    1.0631    1.0645 C   0  0  0  0  0  0  0  0  0  0  0  0
   -4.9282    2.1890    0.8759 F   0  0  0  0  0  0  0  0  0  0  0  0
   -7.0214    1.1334    1.0373 C   0  0  0  0  0  0  0  0  0  0  0  0
   -7.7755   -0.0245    1.2230 C   0  0  0  0  0  0  0  0  0  0  0  0
   -7.1328   -1.2478    1.4328 C   0  0  0  0  0  0  0  0  0  0  0  0
   -5.7350   -1.3161    1.4594 C   0  0  0  0  0  0  0  0  0  0  0  0
   -5.0035   -2.8627    1.6853 Cl  0  0  0  0  0  0  0  0  0  0  0  0
    3.7965   -0.1492    0.2371 C   0  0  0  0  0  0  0  0  0  0  0  0
    7.7793   -2.1172    2.6044 H   0  0  0  0  0  0  0  0  0  0  0  0
    8.2112   -2.6184    0.9462 H   0  0  0  0  0  0  0  0  0  0  0  0
    9.1629   -1.3473    1.7726 H   0  0  0  0  0  0  0  0  0  0  0  0
    7.4256    0.1919    1.4678 H   0  0  0  0  0  0  0  0  0  0  0  0
    6.7719    1.4382   -0.2988 H   0  0  0  0  0  0  0  0  0  0  0  0
    5.2371    3.2637   -0.8982 H   0  0  0  0  0  0  0  0  0  0  0  0
    1.3292    0.7842    2.1005 H   0  0  0  0  0  0  0  0  0  0  0  0
   -1.0275    0.3779    2.2295 H   0  0  0  0  0  0  0  0  0  0  0  0
    1.2137    0.3942   -2.1730 H   0  0  0  0  0  0  0  0  0  0  0  0
   -1.5997    0.8640   -2.9133 H   0  0  0  0  0  0  0  0  0  0  0  0
   -0.7423   -0.6688   -3.1474 H   0  0  0  0  0  0  0  0  0  0  0  0
   -3.2309   -0.9405   -3.1732 H   0  0  0  0  0  0  0  0  0  0  0  0
   -2.4349   -1.9143   -1.9315 H   0  0  0  0  0  0  0  0  0  0  0  0
   -4.4156   -0.7514   -1.0617 H   0  0  0  0  0  0  0  0  0  0  0  0
   -3.7380    0.8280   -1.4603 H   0  0  0  0  0  0  0  0  0  0  0  0
   -7.5069    2.0920    0.8776 H   0  0  0  0  0  0  0  0  0  0  0  0
   -8.8622    0.0240    1.2081 H   0  0  0  0  0  0  0  0  0  0  0  0
   -7.7284   -2.1470    1.5778 H   0  0  0  0  0  0  0  0  0  0  0  0
    3.4040   -1.1193    0.5449 H   0  0  0  0  0  0  0  0  0  0  0  0
  1  2  1  0
  2  3  1  0
  3  4  2  0
  3  5  1  0
  5  6  1  0
  6  7  2  0
  7  8  1  0
  8  9  1  0
  8 10  2  0
 10 11  1  0
 11 12  1  0
 12 13  2  0
 13 14  1  0
 14 15  2  0
 15 16  1  0
 15 17  1  0
 17 18  1  0
 18 19  1  0
 19 20  1  0
 20 21  1  0
 21 22  2  0
 21 23  1  0
 23 24  2  0
 24 25  1  0
 24 26  1  0
 26 27  2  0
 27 28  1  0
 28 29  2  0
 29 30  1  0
 10 31  1  0
 31  5  2  0
 16 11  2  0
 29 23  1  0
 20 14  1  0
  1 32  1  0
  1 33  1  0
  1 34  1  0
  2 35  1  0
  6 36  1  0
  7 37  1  0
 12 38  1  0
 13 39  1  0
 16 40  1  0
 17 41  1  0
 17 42  1  0
 18 43  1  0
 18 44  1  0
 19 45  1  0
 19 46  1  0
 26 47  1  0
 27 48  1  0
 28 49  1  0
 31 50  1  0
M  END
>  <QED>  (66) 
0.545

>  <MW>  (66) 
457.3

$$$$
CHEMBL3317823
     RDKit          3D

 67 69  0  0  0  0  0  0  0  0999 V2000
   -1.3464    1.6265    1.2570 C   0  0  0  0  0  0  0  0  0  0  0  0
   -2.8253    1.7567    0.8954 C   0  0  0  0  0  0  0  0  0  0  0  0
   -3.2624    3.2170    1.0400 C   0  0  0  0  0  0  0  0  0  0  0  0
   -3.1354    1.2642   -0.5301 C   0  0  0  0  0  0  0  0  0  0  0  0
   -2.9273   -0.2155   -0.6633 N   0  0  0  0  0  0  0  0  0  0  0  0
   -2.0606   -0.5436   -1.8466 C   0  0  0  0  0  0  0  0  0  0  0  0
   -0.5888   -0.3415   -1.5749 C   0  0  0  0  0  0  0  0  0  0  0  0
    0.1293    0.6886   -2.1843 C   0  0  0  0  0  0  0  0  0  0  0  0
    1.4946    0.8619   -1.9149 C   0  0  0  0  0  0  0  0  0  0  0  0
    2.1965    0.0163   -1.0420 C   0  0  0  0  0  0  0  0  0  0  0  0
    3.5460    0.1878   -0.7647 N   0  0  0  0  0  0  0  0  0  0  0  0
    4.3733   -0.9747   -0.4053 C   0  0  0  0  0  0  0  0  0  0  0  0
    5.8362   -0.7868   -0.8556 C   0  0  0  0  0  0  0  0  0  0  0  0
    6.4671    0.4105   -0.2660 N   0  0  0  0  0  0  0  0  0  0  0  0
    7.7210    0.6884   -0.8503 N   0  0  0  0  0  0  0  0  0  0  0  0
    8.8018    1.3979    0.2815 S   0  0  0  0  0  0  0  0  0  0  0  0
    8.6634    0.3213    1.6990 C   0  0  0  0  0  0  0  0  0  0  0  0
    8.3176    2.7122    0.6461 O   0  0  0  0  0  0  0  0  0  0  0  0
   10.1253    1.2094   -0.2767 O   0  0  0  0  0  0  0  0  0  0  0  0
    5.5576    1.5855   -0.3249 C   0  0  0  0  0  0  0  0  0  0  0  0
    4.2676    1.4072   -1.1559 C   0  0  0  0  0  0  0  0  0  0  0  0
    1.4520   -1.0111   -0.4395 C   0  0  0  0  0  0  0  0  0  0  0  0
    0.0877   -1.1936   -0.6994 C   0  0  0  0  0  0  0  0  0  0  0  0
   -4.3568   -1.1770   -0.6865 S   0  0  0  0  0  0  0  0  0  0  0  0
   -3.9183   -2.5586   -0.7173 O   0  0  0  0  0  0  0  0  0  0  0  0
   -5.1927   -0.6354   -1.7395 O   0  0  0  0  0  0  0  0  0  0  0  0
   -5.0979   -0.8383    0.9184 C   0  0  0  0  0  0  0  0  0  0  0  0
   -6.3285   -1.6922    1.0887 C   0  0  0  0  0  0  0  0  0  0  0  0
   -7.5759   -1.2454    0.6285 C   0  0  0  0  0  0  0  0  0  0  0  0
   -8.7137   -2.0380    0.7862 C   0  0  0  0  0  0  0  0  0  0  0  0
   -8.6171   -3.2841    1.4019 C   0  0  0  0  0  0  0  0  0  0  0  0
   -7.3823   -3.7411    1.8572 C   0  0  0  0  0  0  0  0  0  0  0  0
   -6.2427   -2.9508    1.7010 C   0  0  0  0  0  0  0  0  0  0  0  0
   -1.1494    2.0553    2.2457 H   0  0  0  0  0  0  0  0  0  0  0  0
   -1.0456    0.5765    1.2983 H   0  0  0  0  0  0  0  0  0  0  0  0
   -0.7097    2.1464    0.5342 H   0  0  0  0  0  0  0  0  0  0  0  0
   -3.3914    1.1692    1.6247 H   0  0  0  0  0  0  0  0  0  0  0  0
   -4.3332    3.3244    0.8370 H   0  0  0  0  0  0  0  0  0  0  0  0
   -2.7176    3.8656    0.3455 H   0  0  0  0  0  0  0  0  0  0  0  0
   -3.0796    3.5800    2.0570 H   0  0  0  0  0  0  0  0  0  0  0  0
   -2.5148    1.8142   -1.2475 H   0  0  0  0  0  0  0  0  0  0  0  0
   -4.1697    1.5175   -0.7910 H   0  0  0  0  0  0  0  0  0  0  0  0
   -2.3790    0.0514   -2.7124 H   0  0  0  0  0  0  0  0  0  0  0  0
   -2.1774   -1.5909   -2.1489 H   0  0  0  0  0  0  0  0  0  0  0  0
   -0.3604    1.3698   -2.8761 H   0  0  0  0  0  0  0  0  0  0  0  0
    2.0026    1.6725   -2.4293 H   0  0  0  0  0  0  0  0  0  0  0  0
    4.3349   -1.1233    0.6808 H   0  0  0  0  0  0  0  0  0  0  0  0
    3.9999   -1.8875   -0.8861 H   0  0  0  0  0  0  0  0  0  0  0  0
    5.8679   -0.7317   -1.9525 H   0  0  0  0  0  0  0  0  0  0  0  0
    6.4114   -1.6728   -0.5610 H   0  0  0  0  0  0  0  0  0  0  0  0
    8.1813   -0.1074   -1.3048 H   0  0  0  0  0  0  0  0  0  0  0  0
    9.4245    0.6271    2.4209 H   0  0  0  0  0  0  0  0  0  0  0  0
    8.8508   -0.7067    1.3832 H   0  0  0  0  0  0  0  0  0  0  0  0
    7.6750    0.4280    2.1481 H   0  0  0  0  0  0  0  0  0  0  0  0
    6.0741    2.4791   -0.6963 H   0  0  0  0  0  0  0  0  0  0  0  0
    5.2693    1.8061    0.7109 H   0  0  0  0  0  0  0  0  0  0  0  0
    4.5150    1.3640   -2.2239 H   0  0  0  0  0  0  0  0  0  0  0  0
    3.6476    2.2957   -0.9856 H   0  0  0  0  0  0  0  0  0  0  0  0
    1.9190   -1.6832    0.2752 H   0  0  0  0  0  0  0  0  0  0  0  0
   -0.4490   -1.9985   -0.2002 H   0  0  0  0  0  0  0  0  0  0  0  0
   -4.3557   -1.0638    1.6899 H   0  0  0  0  0  0  0  0  0  0  0  0
   -5.3674    0.2199    0.9643 H   0  0  0  0  0  0  0  0  0  0  0  0
   -7.6707   -0.2811    0.1326 H   0  0  0  0  0  0  0  0  0  0  0  0
   -9.6752   -1.6861    0.4211 H   0  0  0  0  0  0  0  0  0  0  0  0
   -9.5028   -3.9030    1.5190 H   0  0  0  0  0  0  0  0  0  0  0  0
   -7.3046   -4.7181    2.3273 H   0  0  0  0  0  0  0  0  0  0  0  0
   -5.2847   -3.3322    2.0500 H   0  0  0  0  0  0  0  0  0  0  0  0
  1  2  1  0
  2  3  1  0
  2  4  1  0
  4  5  1  0
  5  6  1  0
  6  7  1  0
  7  8  1  0
  8  9  2  0
  9 10  1  0
 10 11  1  0
 11 12  1  0
 12 13  1  0
 13 14  1  0
 14 15  1  0
 15 16  1  0
 16 17  1  0
 16 18  2  0
 16 19  2  0
 14 20  1  0
 20 21  1  0
 10 22  2  0
 22 23  1  0
  5 24  1  0
 24 25  2  0
 24 26  2  0
 24 27  1  0
 27 28  1  0
 28 29  2  0
 29 30  1  0
 30 31  2  0
 31 32  1  0
 32 33  2  0
 23  7  2  0
 33 28  1  0
 21 11  1  0
  1 34  1  0
  1 35  1  0
  1 36  1  0
  2 37  1  0
  3 38  1  0
  3 39  1  0
  3 40  1  0
  4 41  1  0
  4 42  1  0
  6 43  1  0
  6 44  1  0
  8 45  1  0
  9 46  1  0
 12 47  1  0
 12 48  1  0
 13 49  1  0
 13 50  1  0
 15 51  1  0
 17 52  1  0
 17 53  1  0
 17 54  1  0
 20 55  1  0
 20 56  1  0
 21 57  1  0
 21 58  1  0
 22 59  1  0
 23 60  1  0
 27 61  1  0
 27 62  1  0
 29 63  1  0
 30 64  1  0
 31 65  1  0
 32 66  1  0
 33 67  1  0
M  END
>  <QED>  (67) 
0.545

>  <MW>  (67) 
494.7

$$$$
CHEMBL3361051
     RDKit          3D

 65 67  0  0  0  0  0  0  0  0999 V2000
   -5.3107   -1.0599    2.0124 C   0  0  0  0  0  0  0  0  0  0  0  0
   -4.6541   -1.5221    0.7154 C   0  0  0  0  0  0  0  0  0  0  0  0
   -5.5993   -1.3637   -0.4744 C   0  0  0  0  0  0  0  0  0  0  0  0
   -3.2394   -0.9592    0.4924 C   0  0  0  0  0  0  0  0  0  0  0  0
   -3.0599    0.5178    0.4483 N   0  0  0  0  0  0  0  0  0  0  0  0
   -3.8376    1.3480   -0.4327 C   0  0  0  0  0  0  0  0  0  0  0  0
   -4.8736    2.1288    0.1083 C   0  0  0  0  0  0  0  0  0  0  0  0
   -5.6915    2.9098   -0.7083 C   0  0  0  0  0  0  0  0  0  0  0  0
   -5.4926    2.9145   -2.0821 C   0  0  0  0  0  0  0  0  0  0  0  0
   -4.4699    2.1447   -2.6338 C   0  0  0  0  0  0  0  0  0  0  0  0
   -3.6236    1.3595   -1.8210 C   0  0  0  0  0  0  0  0  0  0  0  0
   -2.5316    0.5669   -2.4836 C   0  0  0  0  0  0  0  0  0  0  0  0
   -1.3575    0.5405   -1.7935 F   0  0  0  0  0  0  0  0  0  0  0  0
   -2.2007    1.0426   -3.7211 F   0  0  0  0  0  0  0  0  0  0  0  0
   -2.8799   -0.7357   -2.6849 F   0  0  0  0  0  0  0  0  0  0  0  0
   -2.3096    1.2906    1.7792 S   0  0  0  0  0  0  0  0  0  0  0  0
   -2.0541    2.6791    1.4535 O   0  0  0  0  0  0  0  0  0  0  0  0
   -3.0422    0.9322    2.9765 O   0  0  0  0  0  0  0  0  0  0  0  0
   -0.7204    0.4951    1.8576 C   0  0  0  0  0  0  0  0  0  0  0  0
    0.2335    0.7791    0.8833 C   0  0  0  0  0  0  0  0  0  0  0  0
    1.4887    0.1608    0.9389 C   0  0  0  0  0  0  0  0  0  0  0  0
    1.8286   -0.7154    1.9740 C   0  0  0  0  0  0  0  0  0  0  0  0
    3.0221   -1.4131    2.0610 N   0  0  0  0  0  0  0  0  0  0  0  0
    4.2199   -1.2716    1.2272 C   0  0  0  0  0  0  0  0  0  0  0  0
    4.0134   -1.8199   -0.1836 C   0  0  0  0  0  0  0  0  0  0  0  0
    5.3177   -1.7659   -0.9731 C   0  0  0  0  0  0  0  0  0  0  0  0
    6.0516   -0.4968   -0.7554 N   0  0  0  0  0  0  0  0  0  0  0  0
    7.2422   -0.0877   -1.8860 S   0  0  0  0  0  0  0  0  0  0  0  0
    6.2763    0.5340   -3.2494 C   0  0  0  0  0  0  0  0  0  0  0  0
    8.0081    1.0161   -1.3493 O   0  0  0  0  0  0  0  0  0  0  0  0
    7.8840   -1.3120   -2.3139 O   0  0  0  0  0  0  0  0  0  0  0  0
    5.2966    0.5926   -0.1105 C   0  0  0  0  0  0  0  0  0  0  0  0
    4.8276    0.1345    1.2665 C   0  0  0  0  0  0  0  0  0  0  0  0
    0.8409   -0.9847    2.9388 C   0  0  0  0  0  0  0  0  0  0  0  0
   -0.4191   -0.3787    2.8987 C   0  0  0  0  0  0  0  0  0  0  0  0
   -5.5436    0.0067    1.9995 H   0  0  0  0  0  0  0  0  0  0  0  0
   -6.2503   -1.5982    2.1791 H   0  0  0  0  0  0  0  0  0  0  0  0
   -4.6618   -1.2634    2.8701 H   0  0  0  0  0  0  0  0  0  0  0  0
   -4.5102   -2.6075    0.8229 H   0  0  0  0  0  0  0  0  0  0  0  0
   -6.4580   -2.0359   -0.3633 H   0  0  0  0  0  0  0  0  0  0  0  0
   -6.0022   -0.3530   -0.5592 H   0  0  0  0  0  0  0  0  0  0  0  0
   -5.1005   -1.6237   -1.4133 H   0  0  0  0  0  0  0  0  0  0  0  0
   -2.8230   -1.3822   -0.4280 H   0  0  0  0  0  0  0  0  0  0  0  0
   -2.6054   -1.3721    1.2853 H   0  0  0  0  0  0  0  0  0  0  0  0
   -5.0571    2.1388    1.1807 H   0  0  0  0  0  0  0  0  0  0  0  0
   -6.4830    3.5107   -0.2671 H   0  0  0  0  0  0  0  0  0  0  0  0
   -6.1289    3.5200   -2.7234 H   0  0  0  0  0  0  0  0  0  0  0  0
   -4.3258    2.1651   -3.7142 H   0  0  0  0  0  0  0  0  0  0  0  0
    0.0103    1.4742    0.0769 H   0  0  0  0  0  0  0  0  0  0  0  0
    2.1944    0.4054    0.1549 H   0  0  0  0  0  0  0  0  0  0  0  0
    3.2434   -1.6896    3.0158 H   0  0  0  0  0  0  0  0  0  0  0  0
    4.9631   -1.9357    1.6926 H   0  0  0  0  0  0  0  0  0  0  0  0
    3.2481   -1.2564   -0.7262 H   0  0  0  0  0  0  0  0  0  0  0  0
    3.6508   -2.8546   -0.1452 H   0  0  0  0  0  0  0  0  0  0  0  0
    5.9678   -2.5874   -0.6495 H   0  0  0  0  0  0  0  0  0  0  0  0
    5.0949   -1.9129   -2.0346 H   0  0  0  0  0  0  0  0  0  0  0  0
    5.7079    1.4050   -2.9193 H   0  0  0  0  0  0  0  0  0  0  0  0
    6.9700    0.8281   -4.0405 H   0  0  0  0  0  0  0  0  0  0  0  0
    5.6159   -0.2525   -3.6164 H   0  0  0  0  0  0  0  0  0  0  0  0
    5.9184    1.4844    0.0159 H   0  0  0  0  0  0  0  0  0  0  0  0
    4.4452    0.8747   -0.7399 H   0  0  0  0  0  0  0  0  0  0  0  0
    4.1443    0.8820    1.6833 H   0  0  0  0  0  0  0  0  0  0  0  0
    5.6890    0.1170    1.9482 H   0  0  0  0  0  0  0  0  0  0  0  0
    1.0503   -1.6850    3.7453 H   0  0  0  0  0  0  0  0  0  0  0  0
   -1.1481   -0.6025    3.6738 H   0  0  0  0  0  0  0  0  0  0  0  0
  1  2  1  0
  2  3  1  0
  2  4  1  0
  4  5  1  0
  5  6  1  0
  6  7  2  0
  7  8  1  0
  8  9  2  0
  9 10  1  0
 10 11  2  0
 11 12  1  0
 12 13  1  0
 12 14  1  0
 12 15  1  0
  5 16  1  0
 16 17  2  0
 16 18  2  0
 16 19  1  0
 19 20  1  0
 20 21  2  0
 21 22  1  0
 22 23  1  0
 23 24  1  0
 24 25  1  0
 25 26  1  0
 26 27  1  0
 27 28  1  0
 28 29  1  0
 28 30  2  0
 28 31  2  0
 27 32  1  0
 32 33  1  0
 22 34  2  0
 34 35  1  0
 11  6  1  0
 35 19  2  0
 33 24  1  0
  1 36  1  0
  1 37  1  0
  1 38  1  0
  2 39  1  0
  3 40  1  0
  3 41  1  0
  3 42  1  0
  4 43  1  0
  4 44  1  0
  7 45  1  0
  8 46  1  0
  9 47  1  0
 10 48  1  0
 20 49  1  0
 21 50  1  0
 23 51  1  0
 24 52  1  0
 25 53  1  0
 25 54  1  0
 26 55  1  0
 26 56  1  0
 29 57  1  0
 29 58  1  0
 29 59  1  0
 32 60  1  0
 32 61  1  0
 33 62  1  0
 33 63  1  0
 34 64  1  0
 35 65  1  0
M  END
>  <QED>  (68) 
0.544

>  <MW>  (68) 
533.6

$$$$
CHEMBL3581553
     RDKit          3D

 62 65  0  0  0  0  0  0  0  0999 V2000
    8.9544   -0.1105   -0.4326 C   0  0  0  0  0  0  0  0  0  0  0  0
    8.1083    0.5508    0.6261 C   0  0  0  0  0  0  0  0  0  0  0  0
    8.6310    1.0247    1.6344 O   0  0  0  0  0  0  0  0  0  0  0  0
    6.7446    0.5997    0.3989 N   0  0  0  0  0  0  0  0  0  0  0  0
    6.0841    0.1040   -0.8122 C   0  0  0  0  0  0  0  0  0  0  0  0
    4.6760    0.6922   -1.0269 C   0  0  0  0  0  0  0  0  0  0  0  0
    3.8221    0.4921    0.1548 N   0  0  0  0  0  0  0  0  0  0  0  0
    2.4381    0.4905    0.0630 C   0  0  0  0  0  0  0  0  0  0  0  0
    1.6321   -0.0159    1.0971 C   0  0  0  0  0  0  0  0  0  0  0  0
    0.2314   -0.0314    1.0183 C   0  0  0  0  0  0  0  0  0  0  0  0
   -0.4204    0.4554   -0.1156 C   0  0  0  0  0  0  0  0  0  0  0  0
   -1.9237    0.4640   -0.2259 C   0  0  0  0  0  0  0  0  0  0  0  0
   -2.5694   -0.8586   -0.0302 N   0  0  0  0  0  0  0  0  0  0  0  0
   -2.0861   -1.9293   -0.9624 C   0  0  0  0  0  0  0  0  0  0  0  0
   -1.3517   -3.1486   -0.3533 C   0  0  0  0  0  0  0  0  0  0  0  0
   -1.9883   -4.0013   -1.4693 C   0  0  0  0  0  0  0  0  0  0  0  0
   -3.1009   -2.9364   -1.5573 C   0  0  0  0  0  0  0  0  0  0  0  0
   -3.5491   -1.0344    1.3384 S   0  0  0  0  0  0  0  0  0  0  0  0
   -4.0636   -2.3842    1.4038 O   0  0  0  0  0  0  0  0  0  0  0  0
   -2.8552   -0.4477    2.4662 O   0  0  0  0  0  0  0  0  0  0  0  0
   -4.9270    0.0209    0.9376 C   0  0  0  0  0  0  0  0  0  0  0  0
   -5.1248    1.2137    1.6372 C   0  0  0  0  0  0  0  0  0  0  0  0
   -6.2135    2.0268    1.3146 C   0  0  0  0  0  0  0  0  0  0  0  0
   -7.1158    1.6479    0.3056 C   0  0  0  0  0  0  0  0  0  0  0  0
   -8.2803    2.5409   -0.0550 C   0  0  0  0  0  0  0  0  0  0  0  0
   -9.3529    1.8532   -0.5362 F   0  0  0  0  0  0  0  0  0  0  0  0
   -8.7451    3.2653    1.0005 F   0  0  0  0  0  0  0  0  0  0  0  0
   -7.9536    3.4470   -1.0170 F   0  0  0  0  0  0  0  0  0  0  0  0
   -6.9017    0.4426   -0.3846 C   0  0  0  0  0  0  0  0  0  0  0  0
   -5.8149   -0.3740   -0.0666 C   0  0  0  0  0  0  0  0  0  0  0  0
    0.3682    0.9657   -1.1432 C   0  0  0  0  0  0  0  0  0  0  0  0
   -0.2125    1.4589   -2.2473 F   0  0  0  0  0  0  0  0  0  0  0  0
    1.7629    0.9796   -1.0630 C   0  0  0  0  0  0  0  0  0  0  0  0
    4.4862    0.5013    1.4745 C   0  0  0  0  0  0  0  0  0  0  0  0
    5.8699    1.1744    1.4230 C   0  0  0  0  0  0  0  0  0  0  0  0
    8.5468   -1.0892   -0.6987 H   0  0  0  0  0  0  0  0  0  0  0  0
    9.9654   -0.2637   -0.0427 H   0  0  0  0  0  0  0  0  0  0  0  0
    9.0149    0.5315   -1.3150 H   0  0  0  0  0  0  0  0  0  0  0  0
    6.0178   -0.9859   -0.7082 H   0  0  0  0  0  0  0  0  0  0  0  0
    6.7074    0.3187   -1.6857 H   0  0  0  0  0  0  0  0  0  0  0  0
    4.2479    0.1999   -1.9081 H   0  0  0  0  0  0  0  0  0  0  0  0
    4.7527    1.7660   -1.2369 H   0  0  0  0  0  0  0  0  0  0  0  0
    2.0833   -0.4371    1.9925 H   0  0  0  0  0  0  0  0  0  0  0  0
   -0.3361   -0.4374    1.8534 H   0  0  0  0  0  0  0  0  0  0  0  0
   -2.3026    1.2058    0.4863 H   0  0  0  0  0  0  0  0  0  0  0  0
   -2.2381    0.8299   -1.2117 H   0  0  0  0  0  0  0  0  0  0  0  0
   -1.5002   -1.4864   -1.7826 H   0  0  0  0  0  0  0  0  0  0  0  0
   -0.2595   -3.0979   -0.3695 H   0  0  0  0  0  0  0  0  0  0  0  0
   -1.6743   -3.4314    0.6542 H   0  0  0  0  0  0  0  0  0  0  0  0
   -1.3738   -4.0723   -2.3741 H   0  0  0  0  0  0  0  0  0  0  0  0
   -2.3108   -5.0034   -1.1765 H   0  0  0  0  0  0  0  0  0  0  0  0
   -3.9719   -3.1699   -0.9398 H   0  0  0  0  0  0  0  0  0  0  0  0
   -3.4482   -2.7084   -2.5692 H   0  0  0  0  0  0  0  0  0  0  0  0
   -4.4439    1.5157    2.4306 H   0  0  0  0  0  0  0  0  0  0  0  0
   -6.3626    2.9587    1.8599 H   0  0  0  0  0  0  0  0  0  0  0  0
   -7.5899    0.1321   -1.1706 H   0  0  0  0  0  0  0  0  0  0  0  0
   -5.6688   -1.3125   -0.5967 H   0  0  0  0  0  0  0  0  0  0  0  0
    2.3001    1.4086   -1.9019 H   0  0  0  0  0  0  0  0  0  0  0  0
    4.5980   -0.5347    1.8164 H   0  0  0  0  0  0  0  0  0  0  0  0
    3.8851    1.0442    2.2139 H   0  0  0  0  0  0  0  0  0  0  0  0
    5.7579    2.2377    1.1773 H   0  0  0  0  0  0  0  0  0  0  0  0
    6.3447    1.1139    2.4081 H   0  0  0  0  0  0  0  0  0  0  0  0
  1  2  1  0
  2  3  2  0
  2  4  1  0
  4  5  1  0
  5  6  1  0
  6  7  1  0
  7  8  1  0
  8  9  1  0
  9 10  2  0
 10 11  1  0
 11 12  1  0
 12 13  1  0
 13 14  1  0
 14 15  1  0
 15 16  1  0
 16 17  1  0
 13 18  1  0
 18 19  2  0
 18 20  2  0
 18 21  1  0
 21 22  1  0
 22 23  2  0
 23 24  1  0
 24 25  1  0
 25 26  1  0
 25 27  1  0
 25 28  1  0
 24 29  2  0
 29 30  1  0
 11 31  2  0
 31 32  1  0
 31 33  1  0
  7 34  1  0
 34 35  1  0
 35  4  1  0
 33  8  2  0
 17 14  1  0
 30 21  2  0
  1 36  1  0
  1 37  1  0
  1 38  1  0
  5 39  1  0
  5 40  1  0
  6 41  1  0
  6 42  1  0
  9 43  1  0
 10 44  1  0
 12 45  1  0
 12 46  1  0
 14 47  1  0
 15 48  1  0
 15 49  1  0
 16 50  1  0
 16 51  1  0
 17 52  1  0
 17 53  1  0
 22 54  1  0
 23 55  1  0
 29 56  1  0
 30 57  1  0
 33 58  1  0
 34 59  1  0
 34 60  1  0
 35 61  1  0
 35 62  1  0
M  END
>  <QED>  (69) 
0.542

>  <MW>  (69) 
513.6

$$$$
CHEMBL3581551
     RDKit          3D

 63 66  0  0  0  0  0  0  0  0999 V2000
    9.1306   -1.4013    0.2220 C   0  0  0  0  0  0  0  0  0  0  0  0
    8.3843   -0.1268   -0.0828 C   0  0  0  0  0  0  0  0  0  0  0  0
    8.9964    0.8908   -0.4059 O   0  0  0  0  0  0  0  0  0  0  0  0
    7.0060   -0.1654    0.0276 N   0  0  0  0  0  0  0  0  0  0  0  0
    6.2381   -1.3337    0.4685 C   0  0  0  0  0  0  0  0  0  0  0  0
    4.8218   -0.9838    0.9652 C   0  0  0  0  0  0  0  0  0  0  0  0
    4.0721   -0.2139   -0.0399 N   0  0  0  0  0  0  0  0  0  0  0  0
    2.6855   -0.1842   -0.0517 C   0  0  0  0  0  0  0  0  0  0  0  0
    1.9682    0.2565   -1.1774 C   0  0  0  0  0  0  0  0  0  0  0  0
    0.5660    0.2912   -1.2083 C   0  0  0  0  0  0  0  0  0  0  0  0
   -0.1774   -0.1068   -0.0962 C   0  0  0  0  0  0  0  0  0  0  0  0
   -1.6848   -0.1178   -0.0948 C   0  0  0  0  0  0  0  0  0  0  0  0
   -2.2977    1.0017   -0.8459 N   0  0  0  0  0  0  0  0  0  0  0  0
   -2.4119    2.3223   -0.1378 C   0  0  0  0  0  0  0  0  0  0  0  0
   -1.4466    2.7197    1.0113 C   0  0  0  0  0  0  0  0  0  0  0  0
   -2.6299    3.4864    1.6363 C   0  0  0  0  0  0  0  0  0  0  0  0
   -3.5575    2.5057    0.8901 C   0  0  0  0  0  0  0  0  0  0  0  0
   -3.2376    0.5841   -2.2007 S   0  0  0  0  0  0  0  0  0  0  0  0
   -3.6869    1.8063   -2.8332 O   0  0  0  0  0  0  0  0  0  0  0  0
   -2.5232   -0.4258   -2.9531 O   0  0  0  0  0  0  0  0  0  0  0  0
   -4.6659   -0.1909   -1.4714 C   0  0  0  0  0  0  0  0  0  0  0  0
   -4.7217   -1.5824   -1.3514 C   0  0  0  0  0  0  0  0  0  0  0  0
   -5.8579   -2.1904   -0.8057 C   0  0  0  0  0  0  0  0  0  0  0  0
   -6.9407   -1.4109   -0.3910 C   0  0  0  0  0  0  0  0  0  0  0  0
   -8.1057   -1.8756    0.1509 O   0  0  0  0  0  0  0  0  0  0  0  0
   -8.1120   -3.2229    0.5915 C   0  0  0  0  0  0  0  0  0  0  0  0
   -9.2782   -3.4266    1.2546 F   0  0  0  0  0  0  0  0  0  0  0  0
   -8.1285   -4.0458   -0.4854 F   0  0  0  0  0  0  0  0  0  0  0  0
   -6.8887   -0.0220   -0.5533 C   0  0  0  0  0  0  0  0  0  0  0  0
   -5.7590    0.5917   -1.0979 C   0  0  0  0  0  0  0  0  0  0  0  0
    0.5231   -0.5708    1.0142 C   0  0  0  0  0  0  0  0  0  0  0  0
   -0.1507   -0.9920    2.0952 F   0  0  0  0  0  0  0  0  0  0  0  0
    1.9193   -0.6061    1.0428 C   0  0  0  0  0  0  0  0  0  0  0  0
    4.8491    0.6878   -0.9148 C   0  0  0  0  0  0  0  0  0  0  0  0
    6.2283    1.0257   -0.3197 C   0  0  0  0  0  0  0  0  0  0  0  0
   10.1715   -1.2953   -0.0988 H   0  0  0  0  0  0  0  0  0  0  0  0
    9.1154   -1.5928    1.2979 H   0  0  0  0  0  0  0  0  0  0  0  0
    8.6970   -2.2438   -0.3228 H   0  0  0  0  0  0  0  0  0  0  0  0
    6.7842   -1.8567    1.2596 H   0  0  0  0  0  0  0  0  0  0  0  0
    6.1717   -2.0077   -0.3942 H   0  0  0  0  0  0  0  0  0  0  0  0
    4.8896   -0.3972    1.8895 H   0  0  0  0  0  0  0  0  0  0  0  0
    4.3142   -1.9282    1.1946 H   0  0  0  0  0  0  0  0  0  0  0  0
    2.4920    0.5605   -2.0808 H   0  0  0  0  0  0  0  0  0  0  0  0
    0.0678    0.6260   -2.1166 H   0  0  0  0  0  0  0  0  0  0  0  0
   -2.0751   -0.1037    0.9298 H   0  0  0  0  0  0  0  0  0  0  0  0
   -1.9885   -1.0861   -0.5063 H   0  0  0  0  0  0  0  0  0  0  0  0
   -2.4308    3.1186   -0.8977 H   0  0  0  0  0  0  0  0  0  0  0  0
   -1.0948    1.9110    1.6585 H   0  0  0  0  0  0  0  0  0  0  0  0
   -0.5908    3.3339    0.7185 H   0  0  0  0  0  0  0  0  0  0  0  0
   -2.6910    3.4631    2.7270 H   0  0  0  0  0  0  0  0  0  0  0  0
   -2.7153    4.5241    1.2941 H   0  0  0  0  0  0  0  0  0  0  0  0
   -4.4794    2.9472    0.5038 H   0  0  0  0  0  0  0  0  0  0  0  0
   -3.8051    1.6065    1.4654 H   0  0  0  0  0  0  0  0  0  0  0  0
   -3.8965   -2.2033   -1.6953 H   0  0  0  0  0  0  0  0  0  0  0  0
   -5.8733   -3.2755   -0.7508 H   0  0  0  0  0  0  0  0  0  0  0  0
   -7.2784   -3.4672    1.2592 H   0  0  0  0  0  0  0  0  0  0  0  0
   -7.7414    0.5882   -0.2609 H   0  0  0  0  0  0  0  0  0  0  0  0
   -5.7467    1.6705   -1.2360 H   0  0  0  0  0  0  0  0  0  0  0  0
    2.3848   -0.9555    1.9578 H   0  0  0  0  0  0  0  0  0  0  0  0
    4.3197    1.6350   -1.0736 H   0  0  0  0  0  0  0  0  0  0  0  0
    4.9821    0.2011   -1.8885 H   0  0  0  0  0  0  0  0  0  0  0  0
    6.7871    1.6546   -1.0211 H   0  0  0  0  0  0  0  0  0  0  0  0
    6.1036    1.5987    0.6074 H   0  0  0  0  0  0  0  0  0  0  0  0
  1  2  1  0
  2  3  2  0
  2  4  1  0
  4  5  1  0
  5  6  1  0
  6  7  1  0
  7  8  1  0
  8  9  1  0
  9 10  2  0
 10 11  1  0
 11 12  1  0
 12 13  1  0
 13 14  1  0
 14 15  1  0
 15 16  1  0
 16 17  1  0
 13 18  1  0
 18 19  2  0
 18 20  2  0
 18 21  1  0
 21 22  1  0
 22 23  2  0
 23 24  1  0
 24 25  1  0
 25 26  1  0
 26 27  1  0
 26 28  1  0
 24 29  2  0
 29 30  1  0
 11 31  2  0
 31 32  1  0
 31 33  1  0
  7 34  1  0
 34 35  1  0
 35  4  1  0
 33  8  2  0
 17 14  1  0
 30 21  2  0
  1 36  1  0
  1 37  1  0
  1 38  1  0
  5 39  1  0
  5 40  1  0
  6 41  1  0
  6 42  1  0
  9 43  1  0
 10 44  1  0
 12 45  1  0
 12 46  1  0
 14 47  1  0
 15 48  1  0
 15 49  1  0
 16 50  1  0
 16 51  1  0
 17 52  1  0
 17 53  1  0
 22 54  1  0
 23 55  1  0
 26 56  1  0
 29 57  1  0
 30 58  1  0
 33 59  1  0
 34 60  1  0
 34 61  1  0
 35 62  1  0
 35 63  1  0
M  END
>  <QED>  (70) 
0.539

>  <MW>  (70) 
511.6

$$$$
CHEMBL3263716
     RDKit          3D

 59 61  0  0  0  0  0  0  0  0999 V2000
   -4.4897   -4.0256    0.4601 C   0  0  0  0  0  0  0  0  0  0  0  0
   -3.2042   -3.8873    1.2782 C   0  0  0  0  0  0  0  0  0  0  0  0
   -3.4821   -4.2321    2.7429 C   0  0  0  0  0  0  0  0  0  0  0  0
   -2.6082   -2.4725    1.1794 C   0  0  0  0  0  0  0  0  0  0  0  0
   -2.1735   -2.1701   -0.1979 N   0  0  0  0  0  0  0  0  0  0  0  0
   -0.8754   -2.7157   -0.6385 C   0  0  0  0  0  0  0  0  0  0  0  0
    0.3164   -1.8072   -0.4556 C   0  0  0  0  0  0  0  0  0  0  0  0
    0.9315   -1.6628    0.7935 C   0  0  0  0  0  0  0  0  0  0  0  0
    2.0179   -0.7964    0.9557 C   0  0  0  0  0  0  0  0  0  0  0  0
    2.5208   -0.0526   -0.1231 C   0  0  0  0  0  0  0  0  0  0  0  0
    3.6566    0.8658    0.0521 C   0  0  0  0  0  0  0  0  0  0  0  0
    3.5518    2.2195   -0.3066 C   0  0  0  0  0  0  0  0  0  0  0  0
    4.6294    3.0951   -0.1374 C   0  0  0  0  0  0  0  0  0  0  0  0
    5.8405    2.6306    0.3851 C   0  0  0  0  0  0  0  0  0  0  0  0
    6.9580    3.5986    0.5460 C   0  0  0  0  0  0  0  0  0  0  0  0
    8.2282    3.0939    0.5987 N   0  0  0  0  0  0  0  0  0  0  0  0
    6.7621    4.8061    0.5947 O   0  0  0  0  0  0  0  0  0  0  0  0
    5.9574    1.2881    0.7590 C   0  0  0  0  0  0  0  0  0  0  0  0
    4.8743    0.4169    0.5905 C   0  0  0  0  0  0  0  0  0  0  0  0
    1.9065   -0.2109   -1.3740 C   0  0  0  0  0  0  0  0  0  0  0  0
    0.8225   -1.0781   -1.5401 C   0  0  0  0  0  0  0  0  0  0  0  0
   -2.8458   -0.8469   -1.0047 S   0  0  0  0  0  0  0  0  0  0  0  0
   -2.3421   -0.8701   -2.3632 O   0  0  0  0  0  0  0  0  0  0  0  0
   -4.2713   -0.8885   -0.7403 O   0  0  0  0  0  0  0  0  0  0  0  0
   -2.1505    0.5618   -0.1155 C   0  0  0  0  0  0  0  0  0  0  0  0
   -2.6354    1.8400   -0.7503 C   0  0  0  0  0  0  0  0  0  0  0  0
   -3.8523    2.4166   -0.3596 C   0  0  0  0  0  0  0  0  0  0  0  0
   -4.2956    3.6006   -0.9505 C   0  0  0  0  0  0  0  0  0  0  0  0
   -3.5299    4.2186   -1.9371 C   0  0  0  0  0  0  0  0  0  0  0  0
   -2.3218    3.6517   -2.3374 C   0  0  0  0  0  0  0  0  0  0  0  0
   -1.8761    2.4676   -1.7488 C   0  0  0  0  0  0  0  0  0  0  0  0
   -4.3002   -3.8645   -0.6058 H   0  0  0  0  0  0  0  0  0  0  0  0
   -5.2478   -3.3053    0.7857 H   0  0  0  0  0  0  0  0  0  0  0  0
   -4.9116   -5.0306    0.5689 H   0  0  0  0  0  0  0  0  0  0  0  0
   -2.4821   -4.6183    0.8954 H   0  0  0  0  0  0  0  0  0  0  0  0
   -4.2090   -3.5412    3.1835 H   0  0  0  0  0  0  0  0  0  0  0  0
   -2.5625   -4.1808    3.3354 H   0  0  0  0  0  0  0  0  0  0  0  0
   -3.8811   -5.2478    2.8348 H   0  0  0  0  0  0  0  0  0  0  0  0
   -1.7544   -2.3739    1.8579 H   0  0  0  0  0  0  0  0  0  0  0  0
   -3.3476   -1.7404    1.5242 H   0  0  0  0  0  0  0  0  0  0  0  0
   -0.6683   -3.6543   -0.1094 H   0  0  0  0  0  0  0  0  0  0  0  0
   -0.9606   -3.0188   -1.6899 H   0  0  0  0  0  0  0  0  0  0  0  0
    0.5752   -2.2236    1.6541 H   0  0  0  0  0  0  0  0  0  0  0  0
    2.4664   -0.6956    1.9426 H   0  0  0  0  0  0  0  0  0  0  0  0
    2.6188    2.6095   -0.7100 H   0  0  0  0  0  0  0  0  0  0  0  0
    4.5195    4.1419   -0.4153 H   0  0  0  0  0  0  0  0  0  0  0  0
    8.4481    2.1660    0.2674 H   0  0  0  0  0  0  0  0  0  0  0  0
    8.9712    3.7812    0.5723 H   0  0  0  0  0  0  0  0  0  0  0  0
    6.8709    0.9054    1.2040 H   0  0  0  0  0  0  0  0  0  0  0  0
    4.9890   -0.6261    0.8810 H   0  0  0  0  0  0  0  0  0  0  0  0
    2.2751    0.3383   -2.2388 H   0  0  0  0  0  0  0  0  0  0  0  0
    0.3669   -1.1709   -2.5260 H   0  0  0  0  0  0  0  0  0  0  0  0
   -2.4720    0.5022    0.9285 H   0  0  0  0  0  0  0  0  0  0  0  0
   -1.0630    0.5165   -0.1502 H   0  0  0  0  0  0  0  0  0  0  0  0
   -4.4719    1.9413    0.3986 H   0  0  0  0  0  0  0  0  0  0  0  0
   -5.2436    4.0367   -0.6464 H   0  0  0  0  0  0  0  0  0  0  0  0
   -3.8792    5.1377   -2.4001 H   0  0  0  0  0  0  0  0  0  0  0  0
   -1.7298    4.1282   -3.1145 H   0  0  0  0  0  0  0  0  0  0  0  0
   -0.9361    2.0327   -2.0831 H   0  0  0  0  0  0  0  0  0  0  0  0
  1  2  1  0
  2  3  1  0
  2  4  1  0
  4  5  1  0
  5  6  1  0
  6  7  1  0
  7  8  1  0
  8  9  2  0
  9 10  1  0
 10 11  1  0
 11 12  1  0
 12 13  2  0
 13 14  1  0
 14 15  1  0
 15 16  1  0
 15 17  2  0
 14 18  2  0
 18 19  1  0
 10 20  2  0
 20 21  1  0
  5 22  1  0
 22 23  2  0
 22 24  2  0
 22 25  1  0
 25 26  1  0
 26 27  2  0
 27 28  1  0
 28 29  2  0
 29 30  1  0
 30 31  2  0
 21  7  2  0
 31 26  1  0
 19 11  2  0
  1 32  1  0
  1 33  1  0
  1 34  1  0
  2 35  1  0
  3 36  1  0
  3 37  1  0
  3 38  1  0
  4 39  1  0
  4 40  1  0
  6 41  1  0
  6 42  1  0
  8 43  1  0
  9 44  1  0
 12 45  1  0
 13 46  1  0
 16 47  1  0
 16 48  1  0
 18 49  1  0
 19 50  1  0
 20 51  1  0
 21 52  1  0
 25 53  1  0
 25 54  1  0
 27 55  1  0
 28 56  1  0
 29 57  1  0
 30 58  1  0
 31 59  1  0
M  END
>  <QED>  (71) 
0.538

>  <MW>  (71) 
436.6

$$$$
CHEMBL3598142
     RDKit          3D

 47 50  0  0  0  0  0  0  0  0999 V2000
    7.3599    2.3015   -1.5333 O   0  0  0  0  0  0  0  0  0  0  0  0
    6.8983    1.5617   -0.6844 C   0  0  0  0  0  0  0  0  0  0  0  0
    7.6927    0.9598    0.2192 O   0  0  0  0  0  0  0  0  0  0  0  0
    5.4665    1.2156   -0.5135 C   0  0  0  0  0  0  0  0  0  0  0  0
    4.5359    1.7853   -1.3886 C   0  0  0  0  0  0  0  0  0  0  0  0
    3.1765    1.4839   -1.2591 C   0  0  0  0  0  0  0  0  0  0  0  0
    2.7288    0.6038   -0.2638 C   0  0  0  0  0  0  0  0  0  0  0  0
    1.3082    0.3208   -0.1580 C   0  0  0  0  0  0  0  0  0  0  0  0
    0.3551    1.2698   -0.4282 N   0  0  0  0  0  0  0  0  0  0  0  0
   -0.8244    0.7035   -0.2384 C   0  0  0  0  0  0  0  0  0  0  0  0
   -2.0546    1.4544   -0.4425 C   0  0  0  0  0  0  0  0  0  0  0  0
   -2.2111    2.3227   -1.3005 O   0  0  0  0  0  0  0  0  0  0  0  0
   -3.2398    1.2047    0.4065 C   0  0  0  0  0  0  0  0  0  0  0  0
   -3.1867    1.4189    1.7933 C   0  0  0  0  0  0  0  0  0  0  0  0
   -1.7641    1.9510    2.6144 Cl  0  0  0  0  0  0  0  0  0  0  0  0
   -4.3293    1.2213    2.5747 C   0  0  0  0  0  0  0  0  0  0  0  0
   -5.5281    0.8306    1.9831 C   0  0  0  0  0  0  0  0  0  0  0  0
   -5.5920    0.6357    0.6047 C   0  0  0  0  0  0  0  0  0  0  0  0
   -4.4537    0.8162   -0.2032 C   0  0  0  0  0  0  0  0  0  0  0  0
   -4.5584    0.5861   -1.6935 C   0  0  0  0  0  0  0  0  0  0  0  0
   -4.7004    1.7239   -2.4153 F   0  0  0  0  0  0  0  0  0  0  0  0
   -3.4890   -0.0901   -2.1955 F   0  0  0  0  0  0  0  0  0  0  0  0
   -5.6379   -0.1877   -2.0144 F   0  0  0  0  0  0  0  0  0  0  0  0
   -0.6478   -0.6182    0.1159 N   0  0  0  0  0  0  0  0  0  0  0  0
    0.7073   -0.8835    0.1475 C   0  0  0  0  0  0  0  0  0  0  0  0
    1.2416   -2.2460    0.4327 C   0  0  0  0  0  0  0  0  0  0  0  0
    0.2066   -3.3303    0.1361 C   0  0  0  0  0  0  0  0  0  0  0  0
   -1.1298   -2.9736    0.7791 C   0  0  0  0  0  0  0  0  0  0  0  0
   -1.6644   -1.6476    0.2364 C   0  0  0  0  0  0  0  0  0  0  0  0
    3.6643    0.0498    0.6191 C   0  0  0  0  0  0  0  0  0  0  0  0
    5.0263    0.3492    0.4940 C   0  0  0  0  0  0  0  0  0  0  0  0
    8.5891    1.2812   -0.0130 H   0  0  0  0  0  0  0  0  0  0  0  0
    4.8594    2.4691   -2.1707 H   0  0  0  0  0  0  0  0  0  0  0  0
    2.4596    1.9418   -1.9399 H   0  0  0  0  0  0  0  0  0  0  0  0
   -4.2960    1.3886    3.6499 H   0  0  0  0  0  0  0  0  0  0  0  0
   -6.4171    0.6912    2.5958 H   0  0  0  0  0  0  0  0  0  0  0  0
   -6.5427    0.3426    0.1569 H   0  0  0  0  0  0  0  0  0  0  0  0
    2.1401   -2.4396   -0.1635 H   0  0  0  0  0  0  0  0  0  0  0  0
    1.5305   -2.2983    1.4894 H   0  0  0  0  0  0  0  0  0  0  0  0
    0.0747   -3.4365   -0.9482 H   0  0  0  0  0  0  0  0  0  0  0  0
    0.5625   -4.2949    0.5147 H   0  0  0  0  0  0  0  0  0  0  0  0
   -0.9985   -2.8981    1.8661 H   0  0  0  0  0  0  0  0  0  0  0  0
   -1.8631   -3.7678    0.6004 H   0  0  0  0  0  0  0  0  0  0  0  0
   -2.4479   -1.2880    0.9055 H   0  0  0  0  0  0  0  0  0  0  0  0
   -2.0845   -1.7897   -0.7654 H   0  0  0  0  0  0  0  0  0  0  0  0
    3.3452   -0.6024    1.4271 H   0  0  0  0  0  0  0  0  0  0  0  0
    5.7320   -0.0925    1.1932 H   0  0  0  0  0  0  0  0  0  0  0  0
  1  2  2  0
  2  3  1  0
  2  4  1  0
  4  5  1  0
  5  6  2  0
  6  7  1  0
  7  8  1  0
  8  9  1  0
  9 10  2  0
 10 11  1  0
 11 12  2  0
 11 13  1  0
 13 14  2  0
 14 15  1  0
 14 16  1  0
 16 17  2  0
 17 18  1  0
 18 19  2  0
 19 20  1  0
 20 21  1  0
 20 22  1  0
 20 23  1  0
 10 24  1  0
 24 25  1  0
 25 26  1  0
 26 27  1  0
 27 28  1  0
 28 29  1  0
  7 30  2  0
 30 31  1  0
 31  4  2  0
 25  8  2  0
 19 13  1  0
 29 24  1  0
  3 32  1  0
  5 33  1  0
  6 34  1  0
 16 35  1  0
 17 36  1  0
 18 37  1  0
 26 38  1  0
 26 39  1  0
 27 40  1  0
 27 41  1  0
 28 42  1  0
 28 43  1  0
 29 44  1  0
 29 45  1  0
 30 46  1  0
 31 47  1  0
M  END
>  <QED>  (72) 
0.536

>  <MW>  (72) 
448.8

$$$$
CHEMBL3596276
     RDKit          3D

 51 55  0  0  0  0  0  0  0  0999 V2000
    6.7705   -2.3006   -2.9668 O   0  0  0  0  0  0  0  0  0  0  0  0
    6.5047   -1.2141   -2.4876 C   0  0  0  0  0  0  0  0  0  0  0  0
    7.3982   -0.2102   -2.4887 O   0  0  0  0  0  0  0  0  0  0  0  0
    5.2192   -0.8400   -1.8526 C   0  0  0  0  0  0  0  0  0  0  0  0
    4.9930    0.4366   -1.3236 C   0  0  0  0  0  0  0  0  0  0  0  0
    3.7613    0.7420   -0.7344 C   0  0  0  0  0  0  0  0  0  0  0  0
    2.7487   -0.2245   -0.6564 C   0  0  0  0  0  0  0  0  0  0  0  0
    1.4845    0.1326   -0.0506 C   0  0  0  0  0  0  0  0  0  0  0  0
    0.8264    1.2899   -0.3767 N   0  0  0  0  0  0  0  0  0  0  0  0
   -0.2860    1.3200    0.3411 C   0  0  0  0  0  0  0  0  0  0  0  0
   -1.2692    2.3784    0.1432 C   0  0  0  0  0  0  0  0  0  0  0  0
   -1.0085    3.5045   -0.2824 O   0  0  0  0  0  0  0  0  0  0  0  0
   -2.7000    2.1059    0.3848 C   0  0  0  0  0  0  0  0  0  0  0  0
   -3.3325    2.6979    1.4905 C   0  0  0  0  0  0  0  0  0  0  0  0
   -2.4803    3.6548    2.6509 Cl  0  0  0  0  0  0  0  0  0  0  0  0
   -4.6955    2.4957    1.7020 C   0  0  0  0  0  0  0  0  0  0  0  0
   -5.4291    1.7303    0.8021 C   0  0  0  0  0  0  0  0  0  0  0  0
   -4.8015    1.1675   -0.3124 C   0  0  0  0  0  0  0  0  0  0  0  0
   -3.4237    1.3300   -0.5562 C   0  0  0  0  0  0  0  0  0  0  0  0
   -2.7783    0.7653   -1.8109 C   0  0  0  0  0  0  0  0  0  0  0  0
   -3.3205   -0.4497   -2.5306 C   0  0  0  0  0  0  0  0  0  0  0  0
   -2.0516   -0.5594   -1.7467 C   0  0  0  0  0  0  0  0  0  0  0  0
   -0.3015    0.2398    1.1998 N   0  0  0  0  0  0  0  0  0  0  0  0
    0.8113   -0.5386    0.9483 C   0  0  0  0  0  0  0  0  0  0  0  0
    1.1206   -1.7674    1.7360 C   0  0  0  0  0  0  0  0  0  0  0  0
   -0.0996   -2.2775    2.5022 C   0  0  0  0  0  0  0  0  0  0  0  0
   -0.7951   -1.1268    3.2220 C   0  0  0  0  0  0  0  0  0  0  0  0
   -1.2819   -0.0791    2.2208 C   0  0  0  0  0  0  0  0  0  0  0  0
    2.9828   -1.4869   -1.2076 C   0  0  0  0  0  0  0  0  0  0  0  0
    2.0244   -2.4263   -1.2089 F   0  0  0  0  0  0  0  0  0  0  0  0
    4.2062   -1.8020   -1.7961 C   0  0  0  0  0  0  0  0  0  0  0  0
    8.1833   -0.5910   -2.9354 H   0  0  0  0  0  0  0  0  0  0  0  0
    5.7619    1.2046   -1.3693 H   0  0  0  0  0  0  0  0  0  0  0  0
    3.5870    1.7420   -0.3387 H   0  0  0  0  0  0  0  0  0  0  0  0
   -5.1953    2.9438    2.5578 H   0  0  0  0  0  0  0  0  0  0  0  0
   -6.4969    1.5862    0.9531 H   0  0  0  0  0  0  0  0  0  0  0  0
   -5.4141    0.6085   -1.0182 H   0  0  0  0  0  0  0  0  0  0  0  0
   -2.3336    1.5178   -2.4649 H   0  0  0  0  0  0  0  0  0  0  0  0
   -4.1819   -0.9820   -2.1473 H   0  0  0  0  0  0  0  0  0  0  0  0
   -3.2479   -0.4658   -3.6132 H   0  0  0  0  0  0  0  0  0  0  0  0
   -2.0812   -1.1468   -0.8372 H   0  0  0  0  0  0  0  0  0  0  0  0
   -1.1151   -0.6424   -2.2894 H   0  0  0  0  0  0  0  0  0  0  0  0
    1.4897   -2.5693    1.0909 H   0  0  0  0  0  0  0  0  0  0  0  0
    1.9229   -1.5311    2.4461 H   0  0  0  0  0  0  0  0  0  0  0  0
    0.2098   -3.0428    3.2226 H   0  0  0  0  0  0  0  0  0  0  0  0
   -0.8039   -2.7533    1.8079 H   0  0  0  0  0  0  0  0  0  0  0  0
   -1.6429   -1.4997    3.8070 H   0  0  0  0  0  0  0  0  0  0  0  0
   -0.0949   -0.6645    3.9293 H   0  0  0  0  0  0  0  0  0  0  0  0
   -2.1720   -0.4469    1.7001 H   0  0  0  0  0  0  0  0  0  0  0  0
   -1.5247    0.8388    2.7594 H   0  0  0  0  0  0  0  0  0  0  0  0
    4.3528   -2.7941   -2.2148 H   0  0  0  0  0  0  0  0  0  0  0  0
  1  2  2  0
  2  3  1  0
  2  4  1  0
  4  5  1  0
  5  6  2  0
  6  7  1  0
  7  8  1  0
  8  9  1  0
  9 10  2  0
 10 11  1  0
 11 12  2  0
 11 13  1  0
 13 14  2  0
 14 15  1  0
 14 16  1  0
 16 17  2  0
 17 18  1  0
 18 19  2  0
 19 20  1  0
 20 21  1  0
 21 22  1  0
 10 23  1  0
 23 24  1  0
 24 25  1  0
 25 26  1  0
 26 27  1  0
 27 28  1  0
  7 29  2  0
 29 30  1  0
 29 31  1  0
 31  4  2  0
 24  8  2  0
 19 13  1  0
 22 20  1  0
 28 23  1  0
  3 32  1  0
  5 33  1  0
  6 34  1  0
 16 35  1  0
 17 36  1  0
 18 37  1  0
 20 38  1  0
 21 39  1  0
 21 40  1  0
 22 41  1  0
 22 42  1  0
 25 43  1  0
 25 44  1  0
 26 45  1  0
 26 46  1  0
 27 47  1  0
 27 48  1  0
 28 49  1  0
 28 50  1  0
 31 51  1  0
M  END
>  <QED>  (73) 
0.535

>  <MW>  (73) 
438.9

$$$$
CHEMBL3598150
     RDKit          3D

 47 50  0  0  0  0  0  0  0  0999 V2000
   -2.4663    1.1129    2.4139 O   0  0  0  0  0  0  0  0  0  0  0  0
   -2.4059    0.5970    1.2982 C   0  0  0  0  0  0  0  0  0  0  0  0
   -3.6989    0.5260    0.5778 C   0  0  0  0  0  0  0  0  0  0  0  0
   -3.8669    1.1575   -0.6656 C   0  0  0  0  0  0  0  0  0  0  0  0
   -2.6137    2.0472   -1.4533 Cl  0  0  0  0  0  0  0  0  0  0  0  0
   -5.1064    1.1117   -1.3112 C   0  0  0  0  0  0  0  0  0  0  0  0
   -6.1857    0.4604   -0.7194 C   0  0  0  0  0  0  0  0  0  0  0  0
   -6.0323   -0.1491    0.5242 C   0  0  0  0  0  0  0  0  0  0  0  0
   -4.7920   -0.1295    1.1895 C   0  0  0  0  0  0  0  0  0  0  0  0
   -4.6608   -0.8173    2.5298 C   0  0  0  0  0  0  0  0  0  0  0  0
   -3.5025   -1.5226    2.6448 F   0  0  0  0  0  0  0  0  0  0  0  0
   -5.6493   -1.7397    2.7277 F   0  0  0  0  0  0  0  0  0  0  0  0
   -4.7356    0.0262    3.5876 F   0  0  0  0  0  0  0  0  0  0  0  0
   -1.1881    0.0960    0.6850 C   0  0  0  0  0  0  0  0  0  0  0  0
   -0.0269    0.6947    0.8939 N   0  0  0  0  0  0  0  0  0  0  0  0
    0.8987    0.0427    0.1207 C   0  0  0  0  0  0  0  0  0  0  0  0
    2.2560    0.4987    0.1312 C   0  0  0  0  0  0  0  0  0  0  0  0
    2.5835    1.7922    0.3188 C   0  0  0  0  0  0  0  0  0  0  0  0
    3.9913    2.3065    0.3964 C   0  0  0  0  0  0  0  0  0  0  0  0
    5.0430    1.2755   -0.0356 C   0  0  0  0  0  0  0  0  0  0  0  0
    6.4230    1.7173    0.3946 C   0  0  0  0  0  0  0  0  0  0  0  0
    6.7298    2.7716    0.9249 O   0  0  0  0  0  0  0  0  0  0  0  0
    7.3803    0.8226    0.0766 O   0  0  0  0  0  0  0  0  0  0  0  0
    4.6907   -0.1033    0.5300 C   0  0  0  0  0  0  0  0  0  0  0  0
    3.3200   -0.5655    0.0216 C   0  0  0  0  0  0  0  0  0  0  0  0
    0.3068   -0.9880   -0.5768 C   0  0  0  0  0  0  0  0  0  0  0  0
    0.7027   -1.9690   -1.5326 C   0  0  0  0  0  0  0  0  0  0  0  0
   -0.1831   -2.8934   -1.9478 C   0  0  0  0  0  0  0  0  0  0  0  0
   -1.5420   -2.9227   -1.4428 C   0  0  0  0  0  0  0  0  0  0  0  0
   -1.9335   -1.9766   -0.5738 C   0  0  0  0  0  0  0  0  0  0  0  0
   -1.0274   -0.9921   -0.1606 N   0  0  0  0  0  0  0  0  0  0  0  0
   -5.2434    1.6011   -2.2740 H   0  0  0  0  0  0  0  0  0  0  0  0
   -7.1508    0.4394   -1.2223 H   0  0  0  0  0  0  0  0  0  0  0  0
   -6.8916   -0.6445    0.9784 H   0  0  0  0  0  0  0  0  0  0  0  0
    1.7932    2.5302    0.4521 H   0  0  0  0  0  0  0  0  0  0  0  0
    4.0814    3.1978   -0.2368 H   0  0  0  0  0  0  0  0  0  0  0  0
    4.1707    2.6375    1.4273 H   0  0  0  0  0  0  0  0  0  0  0  0
    5.0546    1.2285   -1.1333 H   0  0  0  0  0  0  0  0  0  0  0  0
    8.2085    1.2462    0.3865 H   0  0  0  0  0  0  0  0  0  0  0  0
    5.4435   -0.8490    0.2477 H   0  0  0  0  0  0  0  0  0  0  0  0
    4.6892   -0.0674    1.6278 H   0  0  0  0  0  0  0  0  0  0  0  0
    3.0362   -1.4628    0.5854 H   0  0  0  0  0  0  0  0  0  0  0  0
    3.4285   -0.8542   -1.0304 H   0  0  0  0  0  0  0  0  0  0  0  0
    1.7102   -1.9659   -1.9326 H   0  0  0  0  0  0  0  0  0  0  0  0
    0.1034   -3.6454   -2.6773 H   0  0  0  0  0  0  0  0  0  0  0  0
   -2.2094   -3.7093   -1.7781 H   0  0  0  0  0  0  0  0  0  0  0  0
   -2.9325   -1.9704   -0.1655 H   0  0  0  0  0  0  0  0  0  0  0  0
  1  2  2  0
  2  3  1  0
  3  4  2  0
  4  5  1  0
  4  6  1  0
  6  7  2  0
  7  8  1  0
  8  9  2  0
  9 10  1  0
 10 11  1  0
 10 12  1  0
 10 13  1  0
  2 14  1  0
 14 15  2  0
 15 16  1  0
 16 17  1  0
 17 18  2  0
 18 19  1  0
 19 20  1  0
 20 21  1  0
 21 22  2  0
 21 23  1  0
 20 24  1  0
 24 25  1  0
 16 26  2  0
 26 27  1  0
 27 28  2  0
 28 29  1  0
 29 30  2  0
 30 31  1  0
  9  3  1  0
 31 14  1  0
 25 17  1  0
 31 26  1  0
  6 32  1  0
  7 33  1  0
  8 34  1  0
 18 35  1  0
 19 36  1  0
 19 37  1  0
 20 38  1  0
 23 39  1  0
 24 40  1  0
 24 41  1  0
 25 42  1  0
 25 43  1  0
 27 44  1  0
 28 45  1  0
 29 46  1  0
 30 47  1  0
M  END
>  <QED>  (74) 
0.534

>  <MW>  (74) 
448.8

$$$$
CHEMBL3361040
     RDKit          3D

 65 67  0  0  0  0  0  0  0  0999 V2000
   -4.3873    2.6845   -3.0917 C   0  0  0  0  0  0  0  0  0  0  0  0
   -4.4154    2.4834   -1.5750 C   0  0  0  0  0  0  0  0  0  0  0  0
   -5.2697    3.5722   -0.9214 C   0  0  0  0  0  0  0  0  0  0  0  0
   -2.9797    2.4830   -1.0214 C   0  0  0  0  0  0  0  0  0  0  0  0
   -2.9514    2.1693    0.4282 N   0  0  0  0  0  0  0  0  0  0  0  0
   -3.3873    0.8074    0.8508 C   0  0  0  0  0  0  0  0  0  0  0  0
   -2.7590   -0.3278    0.0362 C   0  0  0  0  0  0  0  0  0  0  0  0
   -3.0707   -1.6804    0.6276 C   0  0  0  0  0  0  0  0  0  0  0  0
   -2.1698   -2.2964    1.5066 C   0  0  0  0  0  0  0  0  0  0  0  0
   -2.4689   -3.5381    2.0688 C   0  0  0  0  0  0  0  0  0  0  0  0
   -3.6703   -4.1732    1.7601 C   0  0  0  0  0  0  0  0  0  0  0  0
   -4.5744   -3.5673    0.8899 C   0  0  0  0  0  0  0  0  0  0  0  0
   -4.2781   -2.3254    0.3268 C   0  0  0  0  0  0  0  0  0  0  0  0
   -1.8060    2.9721    1.3959 S   0  0  0  0  0  0  0  0  0  0  0  0
   -2.1297    2.7270    2.7853 O   0  0  0  0  0  0  0  0  0  0  0  0
   -1.6366    4.3206    0.8987 O   0  0  0  0  0  0  0  0  0  0  0  0
   -0.3032    2.0927    1.0399 C   0  0  0  0  0  0  0  0  0  0  0  0
    0.1601    1.1174    1.9223 C   0  0  0  0  0  0  0  0  0  0  0  0
    1.3465    0.4347    1.6336 C   0  0  0  0  0  0  0  0  0  0  0  0
    2.0979    0.7065    0.4731 C   0  0  0  0  0  0  0  0  0  0  0  0
    3.2841   -0.0256    0.2604 N   0  0  0  0  0  0  0  0  0  0  0  0
    4.2550    0.5158   -0.7233 C   0  0  0  0  0  0  0  0  0  0  0  0
    5.5942   -0.2429   -0.6268 C   0  0  0  0  0  0  0  0  0  0  0  0
    5.3781   -1.7084   -0.8213 N   0  0  0  0  0  0  0  0  0  0  0  0
    6.7358   -2.6519   -1.1492 S   0  0  0  0  0  0  0  0  0  0  0  0
    7.6467   -2.5974    0.3830 C   0  0  0  0  0  0  0  0  0  0  0  0
    6.2886   -4.0137   -1.3491 O   0  0  0  0  0  0  0  0  0  0  0  0
    7.5194   -1.9662   -2.1539 O   0  0  0  0  0  0  0  0  0  0  0  0
    4.3787   -2.2584    0.1405 C   0  0  0  0  0  0  0  0  0  0  0  0
    3.0493   -1.4798    0.0530 C   0  0  0  0  0  0  0  0  0  0  0  0
    1.6126    1.7299   -0.3677 C   0  0  0  0  0  0  0  0  0  0  0  0
    2.2636    2.0674   -1.4915 F   0  0  0  0  0  0  0  0  0  0  0  0
    0.4326    2.4209   -0.0951 C   0  0  0  0  0  0  0  0  0  0  0  0
   -3.8106    1.8904   -3.5778 H   0  0  0  0  0  0  0  0  0  0  0  0
   -3.9339    3.6454   -3.3582 H   0  0  0  0  0  0  0  0  0  0  0  0
   -5.4008    2.6617   -3.5060 H   0  0  0  0  0  0  0  0  0  0  0  0
   -4.8900    1.5147   -1.3803 H   0  0  0  0  0  0  0  0  0  0  0  0
   -5.3634    3.4093    0.1570 H   0  0  0  0  0  0  0  0  0  0  0  0
   -4.8355    4.5655   -1.0781 H   0  0  0  0  0  0  0  0  0  0  0  0
   -6.2809    3.5758   -1.3424 H   0  0  0  0  0  0  0  0  0  0  0  0
   -2.3547    1.7680   -1.5671 H   0  0  0  0  0  0  0  0  0  0  0  0
   -2.5433    3.4704   -1.2080 H   0  0  0  0  0  0  0  0  0  0  0  0
   -4.4812    0.7636    0.7803 H   0  0  0  0  0  0  0  0  0  0  0  0
   -3.1716    0.6602    1.9153 H   0  0  0  0  0  0  0  0  0  0  0  0
   -1.6731   -0.2062   -0.0362 H   0  0  0  0  0  0  0  0  0  0  0  0
   -3.1251   -0.3090   -0.9977 H   0  0  0  0  0  0  0  0  0  0  0  0
   -1.2290   -1.8146    1.7608 H   0  0  0  0  0  0  0  0  0  0  0  0
   -1.7660   -4.0108    2.7499 H   0  0  0  0  0  0  0  0  0  0  0  0
   -3.9030   -5.1401    2.1988 H   0  0  0  0  0  0  0  0  0  0  0  0
   -5.5121   -4.0625    0.6508 H   0  0  0  0  0  0  0  0  0  0  0  0
   -4.9967   -1.8663   -0.3486 H   0  0  0  0  0  0  0  0  0  0  0  0
   -0.3846    0.8856    2.8356 H   0  0  0  0  0  0  0  0  0  0  0  0
    1.7056   -0.3038    2.3479 H   0  0  0  0  0  0  0  0  0  0  0  0
    4.4517    1.5758   -0.5228 H   0  0  0  0  0  0  0  0  0  0  0  0
    3.8617    0.4102   -1.7423 H   0  0  0  0  0  0  0  0  0  0  0  0
    6.0457   -0.0702    0.3568 H   0  0  0  0  0  0  0  0  0  0  0  0
    6.2685    0.1477   -1.3952 H   0  0  0  0  0  0  0  0  0  0  0  0
    7.0395   -3.0267    1.1809 H   0  0  0  0  0  0  0  0  0  0  0  0
    7.9226   -1.5656    0.6041 H   0  0  0  0  0  0  0  0  0  0  0  0
    8.5511   -3.1960    0.2511 H   0  0  0  0  0  0  0  0  0  0  0  0
    4.1756   -3.3106   -0.0819 H   0  0  0  0  0  0  0  0  0  0  0  0
    4.7783   -2.1871    1.1586 H   0  0  0  0  0  0  0  0  0  0  0  0
    2.3699   -1.8935    0.8067 H   0  0  0  0  0  0  0  0  0  0  0  0
    2.5907   -1.6388   -0.9320 H   0  0  0  0  0  0  0  0  0  0  0  0
    0.1094    3.2052   -0.7731 H   0  0  0  0  0  0  0  0  0  0  0  0
  1  2  1  0
  2  3  1  0
  2  4  1  0
  4  5  1  0
  5  6  1  0
  6  7  1  0
  7  8  1  0
  8  9  2  0
  9 10  1  0
 10 11  2  0
 11 12  1  0
 12 13  2  0
  5 14  1  0
 14 15  2  0
 14 16  2  0
 14 17  1  0
 17 18  1  0
 18 19  2  0
 19 20  1  0
 20 21  1  0
 21 22  1  0
 22 23  1  0
 23 24  1  0
 24 25  1  0
 25 26  1  0
 25 27  2  0
 25 28  2  0
 24 29  1  0
 29 30  1  0
 20 31  2  0
 31 32  1  0
 31 33  1  0
 13  8  1  0
 33 17  2  0
 30 21  1  0
  1 34  1  0
  1 35  1  0
  1 36  1  0
  2 37  1  0
  3 38  1  0
  3 39  1  0
  3 40  1  0
  4 41  1  0
  4 42  1  0
  6 43  1  0
  6 44  1  0
  7 45  1  0
  7 46  1  0
  9 47  1  0
 10 48  1  0
 11 49  1  0
 12 50  1  0
 13 51  1  0
 18 52  1  0
 19 53  1  0
 22 54  1  0
 22 55  1  0
 23 56  1  0
 23 57  1  0
 26 58  1  0
 26 59  1  0
 26 60  1  0
 29 61  1  0
 29 62  1  0
 30 63  1  0
 30 64  1  0
 33 65  1  0
M  END
>  <QED>  (75) 
0.532

>  <MW>  (75) 
497.7

$$$$
CHEMBL3361039
     RDKit          3D

 65 67  0  0  0  0  0  0  0  0999 V2000
   -5.8526    2.8264   -0.5338 C   0  0  0  0  0  0  0  0  0  0  0  0
   -4.4916    3.3919   -0.9452 C   0  0  0  0  0  0  0  0  0  0  0  0
   -4.6255    4.1565   -2.2639 C   0  0  0  0  0  0  0  0  0  0  0  0
   -3.4289    2.2882   -1.0886 C   0  0  0  0  0  0  0  0  0  0  0  0
   -3.1390    1.6576    0.2146 N   0  0  0  0  0  0  0  0  0  0  0  0
   -3.5385    0.2417    0.3918 C   0  0  0  0  0  0  0  0  0  0  0  0
   -2.7818   -0.7187   -0.5319 C   0  0  0  0  0  0  0  0  0  0  0  0
   -3.1209   -2.1584   -0.2331 C   0  0  0  0  0  0  0  0  0  0  0  0
   -4.2480   -2.7580   -0.8109 C   0  0  0  0  0  0  0  0  0  0  0  0
   -4.5713   -4.0833   -0.5165 C   0  0  0  0  0  0  0  0  0  0  0  0
   -3.7746   -4.8187    0.3589 C   0  0  0  0  0  0  0  0  0  0  0  0
   -2.6540   -4.2301    0.9417 C   0  0  0  0  0  0  0  0  0  0  0  0
   -2.3282   -2.9051    0.6490 C   0  0  0  0  0  0  0  0  0  0  0  0
   -1.9876    2.3432    1.2472 S   0  0  0  0  0  0  0  0  0  0  0  0
   -2.3069    1.9085    2.5931 O   0  0  0  0  0  0  0  0  0  0  0  0
   -1.8527    3.7527    0.9519 O   0  0  0  0  0  0  0  0  0  0  0  0
   -0.4727    1.5506    0.8083 C   0  0  0  0  0  0  0  0  0  0  0  0
    0.0594    0.5567    1.6335 C   0  0  0  0  0  0  0  0  0  0  0  0
    1.2731   -0.0564    1.2960 C   0  0  0  0  0  0  0  0  0  0  0  0
    1.9865    0.3148    0.1468 C   0  0  0  0  0  0  0  0  0  0  0  0
    3.1998   -0.2695   -0.2328 N   0  0  0  0  0  0  0  0  0  0  0  0
    4.3258    0.6975   -0.3033 C   0  0  0  0  0  0  0  0  0  0  0  0
    5.6918   -0.0129   -0.3767 C   0  0  0  0  0  0  0  0  0  0  0  0
    5.9382   -0.8912    0.8210 N   0  0  0  0  0  0  0  0  0  0  0  0
    7.2129   -2.0069    0.6584 S   0  0  0  0  0  0  0  0  0  0  0  0
    8.6286   -0.9459    0.4490 C   0  0  0  0  0  0  0  0  0  0  0  0
    7.3562   -2.6913    1.9254 O   0  0  0  0  0  0  0  0  0  0  0  0
    6.9902   -2.7445   -0.5659 O   0  0  0  0  0  0  0  0  0  0  0  0
    4.6664   -1.5081    1.3535 C   0  0  0  0  0  0  0  0  0  0  0  0
    3.5765   -1.6078    0.2747 C   0  0  0  0  0  0  0  0  0  0  0  0
    1.4333    1.3317   -0.6496 C   0  0  0  0  0  0  0  0  0  0  0  0
    0.2239    1.9452   -0.3200 C   0  0  0  0  0  0  0  0  0  0  0  0
   -0.2401    2.8981   -1.1377 F   0  0  0  0  0  0  0  0  0  0  0  0
   -6.2022    2.0720   -1.2467 H   0  0  0  0  0  0  0  0  0  0  0  0
   -6.6050    3.6211   -0.4872 H   0  0  0  0  0  0  0  0  0  0  0  0
   -5.8054    2.3642    0.4573 H   0  0  0  0  0  0  0  0  0  0  0  0
   -4.1809    4.1074   -0.1751 H   0  0  0  0  0  0  0  0  0  0  0  0
   -5.3593    4.9645   -2.1729 H   0  0  0  0  0  0  0  0  0  0  0  0
   -4.9478    3.4959   -3.0760 H   0  0  0  0  0  0  0  0  0  0  0  0
   -3.6692    4.6065   -2.5510 H   0  0  0  0  0  0  0  0  0  0  0  0
   -3.7806    1.5426   -1.8100 H   0  0  0  0  0  0  0  0  0  0  0  0
   -2.5099    2.6999   -1.5141 H   0  0  0  0  0  0  0  0  0  0  0  0
   -4.6177    0.1628    0.2104 H   0  0  0  0  0  0  0  0  0  0  0  0
   -3.4016   -0.0546    1.4382 H   0  0  0  0  0  0  0  0  0  0  0  0
   -1.7000   -0.5820   -0.4459 H   0  0  0  0  0  0  0  0  0  0  0  0
   -3.0131   -0.5138   -1.5838 H   0  0  0  0  0  0  0  0  0  0  0  0
   -4.8818   -2.1983   -1.4951 H   0  0  0  0  0  0  0  0  0  0  0  0
   -5.4459   -4.5428   -0.9699 H   0  0  0  0  0  0  0  0  0  0  0  0
   -4.0276   -5.8507    0.5877 H   0  0  0  0  0  0  0  0  0  0  0  0
   -2.0340   -4.8041    1.6255 H   0  0  0  0  0  0  0  0  0  0  0  0
   -1.4510   -2.4611    1.1139 H   0  0  0  0  0  0  0  0  0  0  0  0
   -0.4555    0.2527    2.5431 H   0  0  0  0  0  0  0  0  0  0  0  0
    1.6580   -0.8102    1.9771 H   0  0  0  0  0  0  0  0  0  0  0  0
    4.3170    1.3470    0.5827 H   0  0  0  0  0  0  0  0  0  0  0  0
    4.2179    1.3314   -1.1909 H   0  0  0  0  0  0  0  0  0  0  0  0
    6.4772    0.7491   -0.4144 H   0  0  0  0  0  0  0  0  0  0  0  0
    5.7394   -0.6049   -1.2976 H   0  0  0  0  0  0  0  0  0  0  0  0
    9.5190   -1.5787    0.4336 H   0  0  0  0  0  0  0  0  0  0  0  0
    8.5460   -0.4104   -0.4975 H   0  0  0  0  0  0  0  0  0  0  0  0
    8.6815   -0.2563    1.2934 H   0  0  0  0  0  0  0  0  0  0  0  0
    4.8512   -2.5053    1.7654 H   0  0  0  0  0  0  0  0  0  0  0  0
    4.3271   -0.8824    2.1878 H   0  0  0  0  0  0  0  0  0  0  0  0
    2.7146   -2.1737    0.6439 H   0  0  0  0  0  0  0  0  0  0  0  0
    3.9613   -2.1882   -0.5738 H   0  0  0  0  0  0  0  0  0  0  0  0
    1.9309    1.6461   -1.5629 H   0  0  0  0  0  0  0  0  0  0  0  0
  1  2  1  0
  2  3  1  0
  2  4  1  0
  4  5  1  0
  5  6  1  0
  6  7  1  0
  7  8  1  0
  8  9  2  0
  9 10  1  0
 10 11  2  0
 11 12  1  0
 12 13  2  0
  5 14  1  0
 14 15  2  0
 14 16  2  0
 14 17  1  0
 17 18  1  0
 18 19  2  0
 19 20  1  0
 20 21  1  0
 21 22  1  0
 22 23  1  0
 23 24  1  0
 24 25  1  0
 25 26  1  0
 25 27  2  0
 25 28  2  0
 24 29  1  0
 29 30  1  0
 20 31  2  0
 31 32  1  0
 32 33  1  0
 13  8  1  0
 32 17  2  0
 30 21  1  0
  1 34  1  0
  1 35  1  0
  1 36  1  0
  2 37  1  0
  3 38  1  0
  3 39  1  0
  3 40  1  0
  4 41  1  0
  4 42  1  0
  6 43  1  0
  6 44  1  0
  7 45  1  0
  7 46  1  0
  9 47  1  0
 10 48  1  0
 11 49  1  0
 12 50  1  0
 13 51  1  0
 18 52  1  0
 19 53  1  0
 22 54  1  0
 22 55  1  0
 23 56  1  0
 23 57  1  0
 26 58  1  0
 26 59  1  0
 26 60  1  0
 29 61  1  0
 29 62  1  0
 30 63  1  0
 30 64  1  0
 31 65  1  0
M  END
>  <QED>  (76) 
0.532

>  <MW>  (76) 
497.7

$$$$
CHEMBL3314018
     RDKit          3D

 48 50  0  0  0  0  0  0  0  0999 V2000
   -7.4118    0.0208   -0.7520 C   0  0  0  0  0  0  0  0  0  0  0  0
   -6.8393    1.3971   -0.4822 C   0  0  0  0  0  0  0  0  0  0  0  0
   -5.4186    1.7849   -1.4834 S   0  0  0  0  0  0  0  0  0  0  0  0
   -4.9099    3.0759   -1.0589 O   0  0  0  0  0  0  0  0  0  0  0  0
   -5.7600    1.5518   -2.8744 O   0  0  0  0  0  0  0  0  0  0  0  0
   -4.1988    0.5787   -1.0167 C   0  0  0  0  0  0  0  0  0  0  0  0
   -3.5161    0.7319    0.1918 C   0  0  0  0  0  0  0  0  0  0  0  0
   -2.5501   -0.2060    0.5576 C   0  0  0  0  0  0  0  0  0  0  0  0
   -2.2488   -1.2853   -0.2882 C   0  0  0  0  0  0  0  0  0  0  0  0
   -1.1924   -2.2937    0.1061 C   0  0  0  0  0  0  0  0  0  0  0  0
    0.1829   -1.6916    0.3663 C   0  0  0  0  0  0  0  0  0  0  0  0
    0.7796   -1.9408    1.4101 O   0  0  0  0  0  0  0  0  0  0  0  0
    0.6495   -0.9159   -0.6821 N   0  0  0  0  0  0  0  0  0  0  0  0
    1.8929   -0.2585   -0.7824 C   0  0  0  0  0  0  0  0  0  0  0  0
    2.0924    0.5561   -1.9031 C   0  0  0  0  0  0  0  0  0  0  0  0
    3.2940    1.2431   -2.0784 C   0  0  0  0  0  0  0  0  0  0  0  0
    4.3113    1.1184   -1.1343 C   0  0  0  0  0  0  0  0  0  0  0  0
    4.1420    0.3014   -0.0075 C   0  0  0  0  0  0  0  0  0  0  0  0
    5.2095    0.1716    0.9968 C   0  0  0  0  0  0  0  0  0  0  0  0
    5.0412    0.7900    2.2512 C   0  0  0  0  0  0  0  0  0  0  0  0
    6.0278    0.6975    3.2336 C   0  0  0  0  0  0  0  0  0  0  0  0
    5.7956    1.4685    4.7537 Cl  0  0  0  0  0  0  0  0  0  0  0  0
    7.2001   -0.0122    2.9921 C   0  0  0  0  0  0  0  0  0  0  0  0
    7.3856   -0.6361    1.7584 C   0  0  0  0  0  0  0  0  0  0  0  0
    6.3997   -0.5472    0.7677 C   0  0  0  0  0  0  0  0  0  0  0  0
    6.7017   -1.3681   -0.7259 Cl  0  0  0  0  0  0  0  0  0  0  0  0
    2.9212   -0.3803    0.1560 C   0  0  0  0  0  0  0  0  0  0  0  0
   -2.9399   -1.4204   -1.5018 C   0  0  0  0  0  0  0  0  0  0  0  0
   -3.9089   -0.4864   -1.8717 C   0  0  0  0  0  0  0  0  0  0  0  0
   -7.6859   -0.0968   -1.8050 H   0  0  0  0  0  0  0  0  0  0  0  0
   -6.6965   -0.7676   -0.5006 H   0  0  0  0  0  0  0  0  0  0  0  0
   -8.3106   -0.1384   -0.1481 H   0  0  0  0  0  0  0  0  0  0  0  0
   -7.5896    2.1639   -0.7017 H   0  0  0  0  0  0  0  0  0  0  0  0
   -6.5475    1.5010    0.5673 H   0  0  0  0  0  0  0  0  0  0  0  0
   -3.7196    1.5773    0.8460 H   0  0  0  0  0  0  0  0  0  0  0  0
   -2.0233   -0.0834    1.5038 H   0  0  0  0  0  0  0  0  0  0  0  0
   -1.5281   -2.8086    1.0146 H   0  0  0  0  0  0  0  0  0  0  0  0
   -1.0742   -3.0611   -0.6686 H   0  0  0  0  0  0  0  0  0  0  0  0
   -0.0005   -0.7444   -1.4403 H   0  0  0  0  0  0  0  0  0  0  0  0
    1.3149    0.6733   -2.6538 H   0  0  0  0  0  0  0  0  0  0  0  0
    3.4376    1.8761   -2.9504 H   0  0  0  0  0  0  0  0  0  0  0  0
    5.2427    1.6613   -1.2829 H   0  0  0  0  0  0  0  0  0  0  0  0
    4.1305    1.3500    2.4579 H   0  0  0  0  0  0  0  0  0  0  0  0
    7.9687   -0.0864    3.7569 H   0  0  0  0  0  0  0  0  0  0  0  0
    8.2999   -1.1954    1.5741 H   0  0  0  0  0  0  0  0  0  0  0  0
    2.8051   -1.0155    1.0295 H   0  0  0  0  0  0  0  0  0  0  0  0
   -2.7284   -2.2527   -2.1711 H   0  0  0  0  0  0  0  0  0  0  0  0
   -4.4280   -0.5977   -2.8217 H   0  0  0  0  0  0  0  0  0  0  0  0
  1  2  1  0
  2  3  1  0
  3  4  2  0
  3  5  2  0
  3  6  1  0
  6  7  1  0
  7  8  2  0
  8  9  1  0
  9 10  1  0
 10 11  1  0
 11 12  2  0
 11 13  1  0
 13 14  1  0
 14 15  2  0
 15 16  1  0
 16 17  2  0
 17 18  1  0
 18 19  1  0
 19 20  1  0
 20 21  2  0
 21 22  1  0
 21 23  1  0
 23 24  2  0
 24 25  1  0
 25 26  1  0
 18 27  2  0
  9 28  2  0
 28 29  1  0
 29  6  2  0
 27 14  1  0
 25 19  2  0
  1 30  1  0
  1 31  1  0
  1 32  1  0
  2 33  1  0
  2 34  1  0
  7 35  1  0
  8 36  1  0
 10 37  1  0
 10 38  1  0
 13 39  1  0
 15 40  1  0
 16 41  1  0
 17 42  1  0
 20 43  1  0
 23 44  1  0
 24 45  1  0
 27 46  1  0
 28 47  1  0
 29 48  1  0
M  END
>  <QED>  (77) 
0.531

>  <MW>  (77) 
448.4

$$$$
CHEMBL422904
     RDKit          3D

 75 78  0  0  0  0  0  0  0  0999 V2000
   -6.7257    0.1952    2.0095 C   0  0  0  0  0  0  0  0  0  0  0  0
   -6.8509   -0.0585    0.5068 C   0  0  0  0  0  0  0  0  0  0  0  0
   -8.2733   -0.5196    0.1768 C   0  0  0  0  0  0  0  0  0  0  0  0
   -6.5017    1.1868   -0.3304 C   0  0  0  0  0  0  0  0  0  0  0  0
   -5.0831    1.7465   -0.1307 C   0  0  0  0  0  0  0  0  0  0  0  0
   -3.9359    0.7605   -0.4220 C   0  0  1  0  0  0  0  0  0  0  0  0
   -4.1470    0.2239   -1.7286 O   0  0  0  0  0  0  0  0  0  0  0  0
   -2.5007    1.3907   -0.3679 C   0  0  1  0  0  0  0  0  0  0  0  0
   -2.3391    2.2777    0.8715 C   0  0  0  0  0  0  0  0  0  0  0  0
   -1.3967    0.2764   -0.4316 C   0  0  1  0  0  0  0  0  0  0  0  0
   -1.4388   -0.5396   -1.7591 C   0  0  0  0  0  0  0  0  0  0  0  0
   -0.0157   -1.0308   -2.0474 C   0  0  0  0  0  0  0  0  0  0  0  0
    0.7523   -0.6785   -0.7852 C   0  0  1  0  0  0  0  0  0  0  0  0
    2.2843   -0.6511   -0.8650 C   0  0  2  0  0  0  0  0  0  0  0  0
    2.8286   -1.9889   -1.3902 C   0  0  0  0  0  0  0  0  0  0  0  0
    4.2685   -2.2355   -1.0702 C   0  0  0  0  0  0  0  0  0  0  0  0
    5.0030   -1.4830   -0.2332 C   0  0  0  0  0  0  0  0  0  0  0  0
    6.4057   -1.8928    0.1432 C   0  0  0  0  0  0  0  0  0  0  0  0
    6.4810   -2.2703    1.6320 C   0  0  1  0  0  0  0  0  0  0  0  0
    7.7754   -1.9325    2.1381 O   0  0  0  0  0  0  0  0  0  0  0  0
    5.4070   -1.5839    2.4896 C   0  0  0  0  0  0  0  0  0  0  0  0
    5.0556   -0.1987    1.9367 C   0  0  0  0  0  0  0  0  0  0  0  0
    4.4518   -0.2479    0.4940 C   0  0  1  0  0  0  0  0  0  0  0  0
    4.9412    1.0105   -0.2625 C   0  0  0  0  0  0  0  0  0  0  0  0
    2.8743   -0.3163    0.5385 C   0  0  1  0  0  0  0  0  0  0  0  0
    2.1951    0.9382    1.1472 C   0  0  0  0  0  0  0  0  0  0  0  0
    0.6564    0.8998    1.1037 C   0  0  0  0  0  0  0  0  0  0  0  0
    0.1181    0.6572   -0.3191 C   0  0  2  0  0  0  0  0  0  0  0  0
    0.4535    1.8551   -1.2401 C   0  0  0  0  0  0  0  0  0  0  0  0
   -5.6901    0.4058    2.2932 H   0  0  0  0  0  0  0  0  0  0  0  0
   -7.3451    1.0427    2.3220 H   0  0  0  0  0  0  0  0  0  0  0  0
   -7.0448   -0.6842    2.5794 H   0  0  0  0  0  0  0  0  0  0  0  0
   -6.1725   -0.8770    0.2396 H   0  0  0  0  0  0  0  0  0  0  0  0
   -9.0105    0.2495    0.4317 H   0  0  0  0  0  0  0  0  0  0  0  0
   -8.5265   -1.4288    0.7324 H   0  0  0  0  0  0  0  0  0  0  0  0
   -8.3717   -0.7440   -0.8906 H   0  0  0  0  0  0  0  0  0  0  0  0
   -7.2144    1.9884   -0.0946 H   0  0  0  0  0  0  0  0  0  0  0  0
   -6.6510    0.9610   -1.3938 H   0  0  0  0  0  0  0  0  0  0  0  0
   -4.9809    2.6109   -0.7997 H   0  0  0  0  0  0  0  0  0  0  0  0
   -5.0092    2.1264    0.8929 H   0  0  0  0  0  0  0  0  0  0  0  0
   -3.9764   -0.0690    0.2936 H   0  0  0  0  0  0  0  0  0  0  0  0
   -4.8791   -0.4130   -1.6759 H   0  0  0  0  0  0  0  0  0  0  0  0
   -2.3854    2.0284   -1.2545 H   0  0  0  0  0  0  0  0  0  0  0  0
   -1.3942    2.8210    0.8569 H   0  0  0  0  0  0  0  0  0  0  0  0
   -2.3950    1.6887    1.7924 H   0  0  0  0  0  0  0  0  0  0  0  0
   -3.1004    3.0613    0.9154 H   0  0  0  0  0  0  0  0  0  0  0  0
   -1.6149   -0.4282    0.3857 H   0  0  0  0  0  0  0  0  0  0  0  0
   -1.7793    0.0697   -2.6037 H   0  0  0  0  0  0  0  0  0  0  0  0
   -2.1203   -1.3919   -1.6607 H   0  0  0  0  0  0  0  0  0  0  0  0
   -0.0006   -2.1059   -2.2537 H   0  0  0  0  0  0  0  0  0  0  0  0
    0.3960   -0.5210   -2.9257 H   0  0  0  0  0  0  0  0  0  0  0  0
    0.4930   -1.4547   -0.0451 H   0  0  0  0  0  0  0  0  0  0  0  0
    2.5865    0.1224   -1.5794 H   0  0  0  0  0  0  0  0  0  0  0  0
    2.2529   -2.8236   -0.9706 H   0  0  0  0  0  0  0  0  0  0  0  0
    2.6961   -2.0303   -2.4781 H   0  0  0  0  0  0  0  0  0  0  0  0
    4.7040   -3.1244   -1.5232 H   0  0  0  0  0  0  0  0  0  0  0  0
    7.1006   -1.0763   -0.0891 H   0  0  0  0  0  0  0  0  0  0  0  0
    6.7574   -2.7426   -0.4555 H   0  0  0  0  0  0  0  0  0  0  0  0
    6.3783   -3.3555    1.7459 H   0  0  0  0  0  0  0  0  0  0  0  0
    7.8697   -0.9657    2.0954 H   0  0  0  0  0  0  0  0  0  0  0  0
    4.4997   -2.2000    2.5075 H   0  0  0  0  0  0  0  0  0  0  0  0
    5.7533   -1.4851    3.5250 H   0  0  0  0  0  0  0  0  0  0  0  0
    4.3798    0.2973    2.6382 H   0  0  0  0  0  0  0  0  0  0  0  0
    5.9711    0.4087    1.9421 H   0  0  0  0  0  0  0  0  0  0  0  0
    4.5293    1.0745   -1.2742 H   0  0  0  0  0  0  0  0  0  0  0  0
    4.6772    1.9298    0.2701 H   0  0  0  0  0  0  0  0  0  0  0  0
    6.0329    1.0167   -0.3669 H   0  0  0  0  0  0  0  0  0  0  0  0
    2.6078   -1.1542    1.2022 H   0  0  0  0  0  0  0  0  0  0  0  0
    2.5330    1.8442    0.6356 H   0  0  0  0  0  0  0  0  0  0  0  0
    2.4875    1.0551    2.1954 H   0  0  0  0  0  0  0  0  0  0  0  0
    0.2907    1.8409    1.5200 H   0  0  0  0  0  0  0  0  0  0  0  0
    0.3047    0.1085    1.7783 H   0  0  0  0  0  0  0  0  0  0  0  0
    0.0398    2.7868   -0.8429 H   0  0  0  0  0  0  0  0  0  0  0  0
    1.5291    2.0153   -1.3505 H   0  0  0  0  0  0  0  0  0  0  0  0
    0.0483    1.7312   -2.2492 H   0  0  0  0  0  0  0  0  0  0  0  0
  1  2  1  0
  2  3  1  0
  2  4  1  0
  4  5  1  0
  5  6  1  0
  6  7  1  0
  6  8  1  0
  8  9  1  0
  8 10  1  0
 10 11  1  0
 11 12  1  0
 12 13  1  0
 13 14  1  0
 14 15  1  0
 15 16  1  0
 16 17  2  0
 17 18  1  0
 18 19  1  0
 19 20  1  0
 19 21  1  0
 21 22  1  0
 22 23  1  0
 23 24  1  6
 23 25  1  0
 25 26  1  0
 26 27  1  0
 27 28  1  0
 28 29  1  6
 28 10  1  0
 28 13  1  0
 25 14  1  0
 23 17  1  0
  1 30  1  0
  1 31  1  0
  1 32  1  0
  2 33  1  0
  3 34  1  0
  3 35  1  0
  3 36  1  0
  4 37  1  0
  4 38  1  0
  5 39  1  0
  5 40  1  0
  6 41  1  1
  7 42  1  0
  8 43  1  6
  9 44  1  0
  9 45  1  0
  9 46  1  0
 10 47  1  1
 11 48  1  0
 11 49  1  0
 12 50  1  0
 12 51  1  0
 13 52  1  1
 14 53  1  6
 15 54  1  0
 15 55  1  0
 16 56  1  0
 18 57  1  0
 18 58  1  0
 19 59  1  6
 20 60  1  0
 21 61  1  0
 21 62  1  0
 22 63  1  0
 22 64  1  0
 24 65  1  0
 24 66  1  0
 24 67  1  0
 25 68  1  1
 26 69  1  0
 26 70  1  0
 27 71  1  0
 27 72  1  0
 29 73  1  0
 29 74  1  0
 29 75  1  0
M  END
>  <QED>  (78) 
0.525

>  <MW>  (78) 
402.7

$$$$
CHEMBL497207
     RDKit          3D

 75 78  0  0  0  0  0  0  0  0999 V2000
    8.0494    1.5478   -0.3740 C   0  0  0  0  0  0  0  0  0  0  0  0
    7.9191    0.1175    0.1492 C   0  0  0  0  0  0  0  0  0  0  0  0
    8.2893   -0.8867   -0.9423 C   0  0  0  0  0  0  0  0  0  0  0  0
    6.5316   -0.1610    0.7586 C   0  0  0  0  0  0  0  0  0  0  0  0
    5.3508   -0.0407   -0.2134 C   0  0  0  0  0  0  0  0  0  0  0  0
    4.0234   -0.3483    0.4950 C   0  0  0  0  0  0  0  0  0  0  0  0
    2.7621   -0.0699   -0.3682 C   0  0  1  0  0  0  0  0  0  0  0  0
    2.7442   -0.9893   -1.5934 C   0  0  0  0  0  0  0  0  0  0  0  0
    1.4747   -0.2185    0.4984 C   0  0  1  0  0  0  0  0  0  0  0  0
    1.4720    0.7649    1.7078 C   0  0  0  0  0  0  0  0  0  0  0  0
    0.0106    1.1181    2.0075 C   0  0  0  0  0  0  0  0  0  0  0  0
   -0.7823    0.1529    1.1404 C   0  0  1  0  0  0  0  0  0  0  0  0
   -2.2599    0.4806    0.8784 C   0  0  2  0  0  0  0  0  0  0  0  0
   -3.0743    0.6705    2.1776 C   0  0  2  0  0  0  0  0  0  0  0  0
   -2.6773   -0.2671    3.1765 O   0  0  0  0  0  0  0  0  0  0  0  0
   -4.5498    0.4819    2.0175 C   0  0  0  0  0  0  0  0  0  0  0  0
   -5.1625    0.0281    0.9070 C   0  0  0  0  0  0  0  0  0  0  0  0
   -6.6339   -0.3349    0.9851 C   0  0  0  0  0  0  0  0  0  0  0  0
   -7.3580   -0.5311   -0.3508 C   0  0  1  0  0  0  0  0  0  0  0  0
   -7.7455    0.7279   -0.9060 O   0  0  0  0  0  0  0  0  0  0  0  0
   -6.5516   -1.3091   -1.3940 C   0  0  0  0  0  0  0  0  0  0  0  0
   -5.0729   -1.5163   -1.0394 C   0  0  0  0  0  0  0  0  0  0  0  0
   -4.3943   -0.2900   -0.3782 C   0  0  1  0  0  0  0  0  0  0  0  0
   -4.4673    0.9253   -1.3354 C   0  0  0  0  0  0  0  0  0  0  0  0
   -2.8903   -0.6319   -0.0200 C   0  0  1  0  0  0  0  0  0  0  0  0
   -2.0095   -0.9584   -1.2534 C   0  0  0  0  0  0  0  0  0  0  0  0
   -0.5201   -1.1640   -0.9285 C   0  0  0  0  0  0  0  0  0  0  0  0
    0.0721    0.0219   -0.1464 C   0  0  2  0  0  0  0  0  0  0  0  0
    0.0797    1.2979   -1.0220 C   0  0  0  0  0  0  0  0  0  0  0  0
    7.4168    1.7204   -1.2504 H   0  0  0  0  0  0  0  0  0  0  0  0
    7.7712    2.2726    0.3982 H   0  0  0  0  0  0  0  0  0  0  0  0
    9.0840    1.7553   -0.6683 H   0  0  0  0  0  0  0  0  0  0  0  0
    8.6495   -0.0004    0.9609 H   0  0  0  0  0  0  0  0  0  0  0  0
    8.1816   -1.9143   -0.5800 H   0  0  0  0  0  0  0  0  0  0  0  0
    9.3315   -0.7499   -1.2508 H   0  0  0  0  0  0  0  0  0  0  0  0
    7.6643   -0.7697   -1.8333 H   0  0  0  0  0  0  0  0  0  0  0  0
    6.5351   -1.1702    1.1906 H   0  0  0  0  0  0  0  0  0  0  0  0
    6.3752    0.5305    1.5968 H   0  0  0  0  0  0  0  0  0  0  0  0
    5.4977   -0.7362   -1.0440 H   0  0  0  0  0  0  0  0  0  0  0  0
    5.3086    0.9718   -0.6288 H   0  0  0  0  0  0  0  0  0  0  0  0
    4.0202   -1.3961    0.8219 H   0  0  0  0  0  0  0  0  0  0  0  0
    3.9877    0.2623    1.4038 H   0  0  0  0  0  0  0  0  0  0  0  0
    2.8286    0.9657   -0.7254 H   0  0  0  0  0  0  0  0  0  0  0  0
    1.9696   -0.6921   -2.3024 H   0  0  0  0  0  0  0  0  0  0  0  0
    2.5738   -2.0316   -1.3048 H   0  0  0  0  0  0  0  0  0  0  0  0
    3.6812   -0.9435   -2.1544 H   0  0  0  0  0  0  0  0  0  0  0  0
    1.4807   -1.2385    0.9125 H   0  0  0  0  0  0  0  0  0  0  0  0
    2.0316    1.6824    1.4927 H   0  0  0  0  0  0  0  0  0  0  0  0
    1.9364    0.2916    2.5804 H   0  0  0  0  0  0  0  0  0  0  0  0
   -0.2139    1.0025    3.0725 H   0  0  0  0  0  0  0  0  0  0  0  0
   -0.1946    2.1607    1.7398 H   0  0  0  0  0  0  0  0  0  0  0  0
   -0.7561   -0.8211    1.6566 H   0  0  0  0  0  0  0  0  0  0  0  0
   -2.3090    1.4338    0.3423 H   0  0  0  0  0  0  0  0  0  0  0  0
   -2.8791    1.6702    2.5811 H   0  0  0  0  0  0  0  0  0  0  0  0
   -2.9438   -1.1473    2.8611 H   0  0  0  0  0  0  0  0  0  0  0  0
   -5.1324    0.6585    2.9203 H   0  0  0  0  0  0  0  0  0  0  0  0
   -6.6972   -1.2842    1.5346 H   0  0  0  0  0  0  0  0  0  0  0  0
   -7.1649    0.4205    1.5783 H   0  0  0  0  0  0  0  0  0  0  0  0
   -8.2973   -1.0659   -0.1655 H   0  0  0  0  0  0  0  0  0  0  0  0
   -8.2159    1.2272   -0.2170 H   0  0  0  0  0  0  0  0  0  0  0  0
   -7.0002   -2.3023   -1.5239 H   0  0  0  0  0  0  0  0  0  0  0  0
   -6.6231   -0.8173   -2.3724 H   0  0  0  0  0  0  0  0  0  0  0  0
   -4.5516   -1.8039   -1.9596 H   0  0  0  0  0  0  0  0  0  0  0  0
   -4.9961   -2.3810   -0.3652 H   0  0  0  0  0  0  0  0  0  0  0  0
   -4.0671    0.6803   -2.3245 H   0  0  0  0  0  0  0  0  0  0  0  0
   -5.4876    1.2772   -1.4970 H   0  0  0  0  0  0  0  0  0  0  0  0
   -3.9153    1.7898   -0.9564 H   0  0  0  0  0  0  0  0  0  0  0  0
   -2.9034   -1.5544    0.5821 H   0  0  0  0  0  0  0  0  0  0  0  0
   -2.0930   -0.1701   -2.0069 H   0  0  0  0  0  0  0  0  0  0  0  0
   -2.3713   -1.8756   -1.7313 H   0  0  0  0  0  0  0  0  0  0  0  0
    0.0099   -1.3287   -1.8699 H   0  0  0  0  0  0  0  0  0  0  0  0
   -0.4108   -2.0896   -0.3486 H   0  0  0  0  0  0  0  0  0  0  0  0
   -0.9233    1.6118   -1.3224 H   0  0  0  0  0  0  0  0  0  0  0  0
    0.5376    2.1507   -0.5110 H   0  0  0  0  0  0  0  0  0  0  0  0
    0.6444    1.1367   -1.9456 H   0  0  0  0  0  0  0  0  0  0  0  0
  1  2  1  0
  2  3  1  0
  2  4  1  0
  4  5  1  0
  5  6  1  0
  6  7  1  0
  7  8  1  0
  7  9  1  0
  9 10  1  0
 10 11  1  0
 11 12  1  0
 12 13  1  0
 13 14  1  0
 14 15  1  0
 14 16  1  0
 16 17  2  0
 17 18  1  0
 18 19  1  0
 19 20  1  0
 19 21  1  0
 21 22  1  0
 22 23  1  0
 23 24  1  6
 23 25  1  0
 25 26  1  0
 26 27  1  0
 27 28  1  0
 28 29  1  6
 28  9  1  0
 28 12  1  0
 25 13  1  0
 23 17  1  0
  1 30  1  0
  1 31  1  0
  1 32  1  0
  2 33  1  0
  3 34  1  0
  3 35  1  0
  3 36  1  0
  4 37  1  0
  4 38  1  0
  5 39  1  0
  5 40  1  0
  6 41  1  0
  6 42  1  0
  7 43  1  6
  8 44  1  0
  8 45  1  0
  8 46  1  0
  9 47  1  1
 10 48  1  0
 10 49  1  0
 11 50  1  0
 11 51  1  0
 12 52  1  1
 13 53  1  6
 14 54  1  1
 15 55  1  0
 16 56  1  0
 18 57  1  0
 18 58  1  0
 19 59  1  1
 20 60  1  0
 21 61  1  0
 21 62  1  0
 22 63  1  0
 22 64  1  0
 24 65  1  0
 24 66  1  0
 24 67  1  0
 25 68  1  1
 26 69  1  0
 26 70  1  0
 27 71  1  0
 27 72  1  0
 29 73  1  0
 29 74  1  0
 29 75  1  0
M  END
>  <QED>  (79) 
0.525

>  <MW>  (79) 
402.7

$$$$
CHEMBL1243244
     RDKit          3D

 75 78  0  0  0  0  0  0  0  0999 V2000
   -7.5012   -0.8412   -0.6475 C   0  0  0  0  0  0  0  0  0  0  0  0
   -6.2065   -0.3479   -1.2949 C   0  0  0  0  0  0  0  0  0  0  0  0
   -6.5317    0.4081   -2.5859 C   0  0  0  0  0  0  0  0  0  0  0  0
   -5.3814    0.5544   -0.3558 C   0  0  0  0  0  0  0  0  0  0  0  0
   -4.8792   -0.1745    0.8995 C   0  0  0  0  0  0  0  0  0  0  0  0
   -3.9795    0.6784    1.8129 C   0  0  2  0  0  0  0  0  0  0  0  0
   -4.8033    1.7545    2.2863 O   0  0  0  0  0  0  0  0  0  0  0  0
   -2.6543    1.2665    1.2141 C   0  0  1  0  0  0  0  0  0  0  0  0
   -2.1433    2.3765    2.1554 C   0  0  0  0  0  0  0  0  0  0  0  0
   -1.5458    0.1864    0.9692 C   0  0  1  0  0  0  0  0  0  0  0  0
   -1.9349   -0.8814   -0.0936 C   0  0  0  0  0  0  0  0  0  0  0  0
   -0.6513   -1.3387   -0.7963 C   0  0  0  0  0  0  0  0  0  0  0  0
    0.4526   -0.7421    0.0563 C   0  0  1  0  0  0  0  0  0  0  0  0
    1.8627   -0.6777   -0.5457 C   0  0  2  0  0  0  0  0  0  0  0  0
    2.3285   -2.0714   -0.9966 C   0  0  0  0  0  0  0  0  0  0  0  0
    3.8095   -2.2036   -1.1549 C   0  0  0  0  0  0  0  0  0  0  0  0
    4.7025   -1.2815   -0.7569 C   0  0  0  0  0  0  0  0  0  0  0  0
    6.1854   -1.5573   -0.8260 C   0  0  0  0  0  0  0  0  0  0  0  0
    6.7914   -1.6476    0.5843 C   0  0  1  0  0  0  0  0  0  0  0  0
    8.1245   -1.1326    0.5306 O   0  0  0  0  0  0  0  0  0  0  0  0
    5.9881   -0.8683    1.6368 C   0  0  0  0  0  0  0  0  0  0  0  0
    5.3466    0.3814    1.0251 C   0  0  0  0  0  0  0  0  0  0  0  0
    4.3081    0.0479   -0.0967 C   0  0  1  0  0  0  0  0  0  0  0  0
    4.3981    1.1616   -1.1675 C   0  0  0  0  0  0  0  0  0  0  0  0
    2.8479   -0.0653    0.4951 C   0  0  1  0  0  0  0  0  0  0  0  0
    2.2901    1.2572    1.0818 C   0  0  0  0  0  0  0  0  0  0  0  0
    0.8365    1.1555    1.5786 C   0  0  0  0  0  0  0  0  0  0  0  0
   -0.1188    0.6324    0.4888 C   0  0  2  0  0  0  0  0  0  0  0  0
   -0.2242    1.6471   -0.6765 C   0  0  0  0  0  0  0  0  0  0  0  0
   -7.2968   -1.4996    0.2020 H   0  0  0  0  0  0  0  0  0  0  0  0
   -8.1118   -0.0041   -0.2928 H   0  0  0  0  0  0  0  0  0  0  0  0
   -8.0991   -1.4155   -1.3636 H   0  0  0  0  0  0  0  0  0  0  0  0
   -5.6009   -1.2230   -1.5630 H   0  0  0  0  0  0  0  0  0  0  0  0
   -7.1399    1.2965   -2.3838 H   0  0  0  0  0  0  0  0  0  0  0  0
   -7.0850   -0.2305   -3.2826 H   0  0  0  0  0  0  0  0  0  0  0  0
   -5.6146    0.7318   -3.0893 H   0  0  0  0  0  0  0  0  0  0  0  0
   -5.9817    1.4244   -0.0621 H   0  0  0  0  0  0  0  0  0  0  0  0
   -4.5267    0.9403   -0.9211 H   0  0  0  0  0  0  0  0  0  0  0  0
   -4.3926   -1.1101    0.6240 H   0  0  0  0  0  0  0  0  0  0  0  0
   -5.7569   -0.4662    1.4906 H   0  0  0  0  0  0  0  0  0  0  0  0
   -3.7172    0.0809    2.6951 H   0  0  0  0  0  0  0  0  0  0  0  0
   -5.5500    1.3645    2.7722 H   0  0  0  0  0  0  0  0  0  0  0  0
   -2.8915    1.7621    0.2662 H   0  0  0  0  0  0  0  0  0  0  0  0
   -1.3493    2.9624    1.6914 H   0  0  0  0  0  0  0  0  0  0  0  0
   -2.9206    3.1085    2.3960 H   0  0  0  0  0  0  0  0  0  0  0  0
   -1.7725    1.9568    3.0962 H   0  0  0  0  0  0  0  0  0  0  0  0
   -1.4144   -0.3467    1.9234 H   0  0  0  0  0  0  0  0  0  0  0  0
   -2.6293   -0.4894   -0.8422 H   0  0  0  0  0  0  0  0  0  0  0  0
   -2.4001   -1.7431    0.3959 H   0  0  0  0  0  0  0  0  0  0  0  0
   -0.5933   -2.4308   -0.8470 H   0  0  0  0  0  0  0  0  0  0  0  0
   -0.6183   -0.9597   -1.8239 H   0  0  0  0  0  0  0  0  0  0  0  0
    0.5254   -1.3788    0.9545 H   0  0  0  0  0  0  0  0  0  0  0  0
    1.8373   -0.0429   -1.4381 H   0  0  0  0  0  0  0  0  0  0  0  0
    2.0078   -2.8312   -0.2727 H   0  0  0  0  0  0  0  0  0  0  0  0
    1.8474   -2.3215   -1.9499 H   0  0  0  0  0  0  0  0  0  0  0  0
    4.1554   -3.1436   -1.5804 H   0  0  0  0  0  0  0  0  0  0  0  0
    6.6778   -0.7714   -1.4122 H   0  0  0  0  0  0  0  0  0  0  0  0
    6.4006   -2.4893   -1.3639 H   0  0  0  0  0  0  0  0  0  0  0  0
    6.8650   -2.6973    0.8921 H   0  0  0  0  0  0  0  0  0  0  0  0
    8.5170   -1.2477    1.4128 H   0  0  0  0  0  0  0  0  0  0  0  0
    5.1999   -1.5094    2.0501 H   0  0  0  0  0  0  0  0  0  0  0  0
    6.6345   -0.5714    2.4709 H   0  0  0  0  0  0  0  0  0  0  0  0
    4.8964    0.9732    1.8263 H   0  0  0  0  0  0  0  0  0  0  0  0
    6.1528    1.0090    0.6203 H   0  0  0  0  0  0  0  0  0  0  0  0
    3.6703    1.0242   -1.9729 H   0  0  0  0  0  0  0  0  0  0  0  0
    4.2396    2.1535   -0.7323 H   0  0  0  0  0  0  0  0  0  0  0  0
    5.3878    1.1861   -1.6392 H   0  0  0  0  0  0  0  0  0  0  0  0
    2.8969   -0.7719    1.3388 H   0  0  0  0  0  0  0  0  0  0  0  0
    2.3468    2.0602    0.3411 H   0  0  0  0  0  0  0  0  0  0  0  0
    2.9017    1.5824    1.9293 H   0  0  0  0  0  0  0  0  0  0  0  0
    0.5407    2.1442    1.9359 H   0  0  0  0  0  0  0  0  0  0  0  0
    0.8082    0.4919    2.4526 H   0  0  0  0  0  0  0  0  0  0  0  0
   -0.5483    2.6291   -0.3200 H   0  0  0  0  0  0  0  0  0  0  0  0
    0.7287    1.8039   -1.1884 H   0  0  0  0  0  0  0  0  0  0  0  0
   -0.9445    1.3325   -1.4383 H   0  0  0  0  0  0  0  0  0  0  0  0
  1  2  1  0
  2  3  1  0
  2  4  1  0
  4  5  1  0
  5  6  1  0
  6  7  1  0
  6  8  1  0
  8  9  1  0
  8 10  1  0
 10 11  1  0
 11 12  1  0
 12 13  1  0
 13 14  1  0
 14 15  1  0
 15 16  1  0
 16 17  2  0
 17 18  1  0
 18 19  1  0
 19 20  1  0
 19 21  1  0
 21 22  1  0
 22 23  1  0
 23 24  1  6
 23 25  1  0
 25 26  1  0
 26 27  1  0
 27 28  1  0
 28 29  1  6
 28 10  1  0
 28 13  1  0
 25 14  1  0
 23 17  1  0
  1 30  1  0
  1 31  1  0
  1 32  1  0
  2 33  1  0
  3 34  1  0
  3 35  1  0
  3 36  1  0
  4 37  1  0
  4 38  1  0
  5 39  1  0
  5 40  1  0
  6 41  1  1
  7 42  1  0
  8 43  1  6
  9 44  1  0
  9 45  1  0
  9 46  1  0
 10 47  1  1
 11 48  1  0
 11 49  1  0
 12 50  1  0
 12 51  1  0
 13 52  1  1
 14 53  1  6
 15 54  1  0
 15 55  1  0
 16 56  1  0
 18 57  1  0
 18 58  1  0
 19 59  1  1
 20 60  1  0
 21 61  1  0
 21 62  1  0
 22 63  1  0
 22 64  1  0
 24 65  1  0
 24 66  1  0
 24 67  1  0
 25 68  1  1
 26 69  1  0
 26 70  1  0
 27 71  1  0
 27 72  1  0
 29 73  1  0
 29 74  1  0
 29 75  1  0
M  END
>  <QED>  (80) 
0.525

>  <MW>  (80) 
402.7

$$$$
CHEMBL497834
     RDKit          3D

 75 78  0  0  0  0  0  0  0  0999 V2000
    8.0655    1.4259   -0.2874 C   0  0  0  0  0  0  0  0  0  0  0  0
    7.8997    0.0053    0.2522 C   0  0  0  0  0  0  0  0  0  0  0  0
    8.2723   -1.0199   -0.8187 C   0  0  0  0  0  0  0  0  0  0  0  0
    6.4962   -0.2402    0.8386 C   0  0  0  0  0  0  0  0  0  0  0  0
    5.3363   -0.1122   -0.1574 C   0  0  0  0  0  0  0  0  0  0  0  0
    3.9904   -0.3865    0.5297 C   0  0  0  0  0  0  0  0  0  0  0  0
    2.7509   -0.0987   -0.3618 C   0  0  1  0  0  0  0  0  0  0  0  0
    2.7378   -1.0404   -1.5701 C   0  0  0  0  0  0  0  0  0  0  0  0
    1.4450   -0.2051    0.4833 C   0  0  1  0  0  0  0  0  0  0  0  0
    1.4415    0.7987    1.6743 C   0  0  0  0  0  0  0  0  0  0  0  0
   -0.0153    1.2002    1.9301 C   0  0  0  0  0  0  0  0  0  0  0  0
   -0.8190    0.2305    1.0781 C   0  0  1  0  0  0  0  0  0  0  0  0
   -2.2957    0.5567    0.7776 C   0  0  2  0  0  0  0  0  0  0  0  0
   -3.1119    0.7752    2.0738 C   0  0  1  0  0  0  0  0  0  0  0  0
   -3.1070    2.1493    2.4468 O   0  0  0  0  0  0  0  0  0  0  0  0
   -4.5527    0.3802    1.9935 C   0  0  0  0  0  0  0  0  0  0  0  0
   -5.1599   -0.1459    0.9127 C   0  0  0  0  0  0  0  0  0  0  0  0
   -6.5731   -0.6763    1.0393 C   0  0  0  0  0  0  0  0  0  0  0  0
   -7.3441   -0.8033   -0.2774 C   0  0  1  0  0  0  0  0  0  0  0  0
   -7.8027    0.4720   -0.7312 O   0  0  0  0  0  0  0  0  0  0  0  0
   -6.5395   -1.4714   -1.3961 C   0  0  0  0  0  0  0  0  0  0  0  0
   -5.0313   -1.5796   -1.1228 C   0  0  0  0  0  0  0  0  0  0  0  0
   -4.4153   -0.3508   -0.4070 C   0  0  1  0  0  0  0  0  0  0  0  0
   -4.5755    0.9039   -1.2988 C   0  0  0  0  0  0  0  0  0  0  0  0
   -2.8948   -0.6102   -0.0728 C   0  0  1  0  0  0  0  0  0  0  0  0
   -2.0179   -0.9363   -1.3053 C   0  0  0  0  0  0  0  0  0  0  0  0
   -0.5328   -1.1419   -0.9647 C   0  0  0  0  0  0  0  0  0  0  0  0
    0.0581    0.0493   -0.1907 C   0  0  2  0  0  0  0  0  0  0  0  0
    0.1056    1.3049   -1.0945 C   0  0  0  0  0  0  0  0  0  0  0  0
    7.4527    1.5978   -1.1779 H   0  0  0  0  0  0  0  0  0  0  0  0
    7.7859    2.1659    0.4697 H   0  0  0  0  0  0  0  0  0  0  0  0
    9.1091    1.6110   -0.5645 H   0  0  0  0  0  0  0  0  0  0  0  0
    8.6124   -0.1144    1.0792 H   0  0  0  0  0  0  0  0  0  0  0  0
    8.1393   -2.0405   -0.4450 H   0  0  0  0  0  0  0  0  0  0  0  0
    9.3225   -0.9058   -1.1090 H   0  0  0  0  0  0  0  0  0  0  0  0
    7.6665   -0.9040   -1.7229 H   0  0  0  0  0  0  0  0  0  0  0  0
    6.4733   -1.2434    1.2839 H   0  0  0  0  0  0  0  0  0  0  0  0
    6.3365    0.4652    1.6644 H   0  0  0  0  0  0  0  0  0  0  0  0
    5.4864   -0.8212   -0.9758 H   0  0  0  0  0  0  0  0  0  0  0  0
    5.3201    0.8952   -0.5867 H   0  0  0  0  0  0  0  0  0  0  0  0
    3.9623   -1.4292    0.8712 H   0  0  0  0  0  0  0  0  0  0  0  0
    3.9485    0.2374    1.4291 H   0  0  0  0  0  0  0  0  0  0  0  0
    2.8447    0.9286   -0.7365 H   0  0  0  0  0  0  0  0  0  0  0  0
    1.9857   -0.7390   -2.3012 H   0  0  0  0  0  0  0  0  0  0  0  0
    2.5374   -2.0729   -1.2662 H   0  0  0  0  0  0  0  0  0  0  0  0
    3.6872   -1.0265   -2.1116 H   0  0  0  0  0  0  0  0  0  0  0  0
    1.4233   -1.2171    0.9162 H   0  0  0  0  0  0  0  0  0  0  0  0
    2.0336    1.6956    1.4590 H   0  0  0  0  0  0  0  0  0  0  0  0
    1.8692    0.3270    2.5665 H   0  0  0  0  0  0  0  0  0  0  0  0
   -0.2651    1.1249    2.9932 H   0  0  0  0  0  0  0  0  0  0  0  0
   -0.1786    2.2386    1.6219 H   0  0  0  0  0  0  0  0  0  0  0  0
   -0.8211   -0.7257    1.6286 H   0  0  0  0  0  0  0  0  0  0  0  0
   -2.3198    1.4883    0.2026 H   0  0  0  0  0  0  0  0  0  0  0  0
   -2.6672    0.2072    2.8999 H   0  0  0  0  0  0  0  0  0  0  0  0
   -2.1845    2.4333    2.5314 H   0  0  0  0  0  0  0  0  0  0  0  0
   -5.1084    0.4900    2.9225 H   0  0  0  0  0  0  0  0  0  0  0  0
   -6.5051   -1.6772    1.4865 H   0  0  0  0  0  0  0  0  0  0  0  0
   -7.1429   -0.0478    1.7353 H   0  0  0  0  0  0  0  0  0  0  0  0
   -8.2522   -1.3906   -0.0975 H   0  0  0  0  0  0  0  0  0  0  0  0
   -8.0966    0.9821    0.0425 H   0  0  0  0  0  0  0  0  0  0  0  0
   -6.6988   -0.9440   -2.3450 H   0  0  0  0  0  0  0  0  0  0  0  0
   -6.9181   -2.4901   -1.5494 H   0  0  0  0  0  0  0  0  0  0  0  0
   -4.5364   -1.7613   -2.0838 H   0  0  0  0  0  0  0  0  0  0  0  0
   -4.8545   -2.4784   -0.5153 H   0  0  0  0  0  0  0  0  0  0  0  0
   -4.0707    0.7781   -2.2617 H   0  0  0  0  0  0  0  0  0  0  0  0
   -5.6186    1.1290   -1.5287 H   0  0  0  0  0  0  0  0  0  0  0  0
   -4.1748    1.8054   -0.8253 H   0  0  0  0  0  0  0  0  0  0  0  0
   -2.8570   -1.5134    0.5587 H   0  0  0  0  0  0  0  0  0  0  0  0
   -2.1039   -0.1488   -2.0597 H   0  0  0  0  0  0  0  0  0  0  0  0
   -2.3726   -1.8574   -1.7806 H   0  0  0  0  0  0  0  0  0  0  0  0
    0.0045   -1.3203   -1.8994 H   0  0  0  0  0  0  0  0  0  0  0  0
   -0.4324   -2.0606   -0.3722 H   0  0  0  0  0  0  0  0  0  0  0  0
    0.6839    1.1129   -2.0038 H   0  0  0  0  0  0  0  0  0  0  0  0
    0.5703    2.1608   -0.5951 H   0  0  0  0  0  0  0  0  0  0  0  0
   -0.8862    1.6287   -1.4204 H   0  0  0  0  0  0  0  0  0  0  0  0
  1  2  1  0
  2  3  1  0
  2  4  1  0
  4  5  1  0
  5  6  1  0
  6  7  1  0
  7  8  1  0
  7  9  1  0
  9 10  1  0
 10 11  1  0
 11 12  1  0
 12 13  1  0
 13 14  1  0
 14 15  1  0
 14 16  1  0
 16 17  2  0
 17 18  1  0
 18 19  1  0
 19 20  1  0
 19 21  1  0
 21 22  1  0
 22 23  1  0
 23 24  1  6
 23 25  1  0
 25 26  1  0
 26 27  1  0
 27 28  1  0
 28 29  1  6
 28  9  1  0
 28 12  1  0
 25 13  1  0
 23 17  1  0
  1 30  1  0
  1 31  1  0
  1 32  1  0
  2 33  1  0
  3 34  1  0
  3 35  1  0
  3 36  1  0
  4 37  1  0
  4 38  1  0
  5 39  1  0
  5 40  1  0
  6 41  1  0
  6 42  1  0
  7 43  1  6
  8 44  1  0
  8 45  1  0
  8 46  1  0
  9 47  1  1
 10 48  1  0
 10 49  1  0
 11 50  1  0
 11 51  1  0
 12 52  1  1
 13 53  1  6
 14 54  1  1
 15 55  1  0
 16 56  1  0
 18 57  1  0
 18 58  1  0
 19 59  1  1
 20 60  1  0
 21 61  1  0
 21 62  1  0
 22 63  1  0
 22 64  1  0
 24 65  1  0
 24 66  1  0
 24 67  1  0
 25 68  1  1
 26 69  1  0
 26 70  1  0
 27 71  1  0
 27 72  1  0
 29 73  1  0
 29 74  1  0
 29 75  1  0
M  END
>  <QED>  (81) 
0.525

>  <MW>  (81) 
402.7

$$$$
CHEMBL171804
     RDKit          3D

 75 78  0  0  0  0  0  0  0  0999 V2000
    7.7362    0.5566    1.8385 C   0  0  0  0  0  0  0  0  0  0  0  0
    6.2301    0.8422    1.9216 C   0  0  0  0  0  0  0  0  0  0  0  0
    5.9903    2.3269    1.6452 C   0  0  0  0  0  0  0  0  0  0  0  0
    5.4287   -0.0925    0.9804 C   0  0  1  0  0  0  0  0  0  0  0  0
    5.6604   -1.4488    1.3815 O   0  0  0  0  0  0  0  0  0  0  0  0
    3.9032    0.1158    1.0330 C   0  0  0  0  0  0  0  0  0  0  0  0
    3.3536    1.0712   -0.0321 C   0  0  0  0  0  0  0  0  0  0  0  0
    2.8032    0.4540   -1.3333 C   0  0  1  0  0  0  0  0  0  0  0  0
    3.9194   -0.2468   -2.1216 C   0  0  0  0  0  0  0  0  0  0  0  0
    1.5180   -0.4174   -1.3183 C   0  0  1  0  0  0  0  0  0  0  0  0
    1.6536   -1.9358   -1.0358 C   0  0  0  0  0  0  0  0  0  0  0  0
    0.2317   -2.4285   -0.6894 C   0  0  0  0  0  0  0  0  0  0  0  0
   -0.6572   -1.2099   -0.9347 C   0  0  1  0  0  0  0  0  0  0  0  0
   -2.0574   -1.1764   -0.3122 C   0  0  2  0  0  0  0  0  0  0  0  0
   -2.8917   -2.3904   -0.7536 C   0  0  0  0  0  0  0  0  0  0  0  0
   -4.3749   -2.1806   -0.7155 C   0  0  0  0  0  0  0  0  0  0  0  0
   -4.9851   -1.0145   -0.4288 C   0  0  0  0  0  0  0  0  0  0  0  0
   -6.4808   -0.8972   -0.6509 C   0  0  0  0  0  0  0  0  0  0  0  0
   -7.1700    0.2851    0.0368 C   0  0  1  0  0  0  0  0  0  0  0  0
   -7.3985    0.0084    1.4206 O   0  0  0  0  0  0  0  0  0  0  0  0
   -6.4092    1.6077   -0.0899 C   0  0  0  0  0  0  0  0  0  0  0  0
   -4.9682    1.4716   -0.6021 C   0  0  0  0  0  0  0  0  0  0  0  0
   -4.2015    0.2451   -0.0462 C   0  0  1  0  0  0  0  0  0  0  0  0
   -4.1034    0.3486    1.4953 C   0  0  0  0  0  0  0  0  0  0  0  0
   -2.7630    0.1630   -0.6946 C   0  0  1  0  0  0  0  0  0  0  0  0
   -1.8642    1.4008   -0.4256 C   0  0  0  0  0  0  0  0  0  0  0  0
   -0.4420    1.2687   -0.9998 C   0  0  0  0  0  0  0  0  0  0  0  0
    0.2434   -0.0166   -0.5211 C   0  0  2  0  0  0  0  0  0  0  0  0
    0.4654    0.0389    1.0105 C   0  0  0  0  0  0  0  0  0  0  0  0
    8.1053    0.6786    0.8145 H   0  0  0  0  0  0  0  0  0  0  0  0
    7.9697   -0.4606    2.1678 H   0  0  0  0  0  0  0  0  0  0  0  0
    8.2985    1.2399    2.4843 H   0  0  0  0  0  0  0  0  0  0  0  0
    5.9276    0.6334    2.9565 H   0  0  0  0  0  0  0  0  0  0  0  0
    6.6059    2.9493    2.3040 H   0  0  0  0  0  0  0  0  0  0  0  0
    6.2430    2.5835    0.6111 H   0  0  0  0  0  0  0  0  0  0  0  0
    4.9483    2.6050    1.8284 H   0  0  0  0  0  0  0  0  0  0  0  0
    5.7934    0.0041   -0.0475 H   0  0  0  0  0  0  0  0  0  0  0  0
    6.5479   -1.7001    1.0753 H   0  0  0  0  0  0  0  0  0  0  0  0
    3.3956   -0.8477    0.9754 H   0  0  0  0  0  0  0  0  0  0  0  0
    3.6386    0.5097    2.0231 H   0  0  0  0  0  0  0  0  0  0  0  0
    2.5783    1.7012    0.4111 H   0  0  0  0  0  0  0  0  0  0  0  0
    4.1376    1.7850   -0.3139 H   0  0  0  0  0  0  0  0  0  0  0  0
    2.5284    1.3320   -1.9389 H   0  0  0  0  0  0  0  0  0  0  0  0
    4.2819   -1.1413   -1.6061 H   0  0  0  0  0  0  0  0  0  0  0  0
    3.5642   -0.5499   -3.1126 H   0  0  0  0  0  0  0  0  0  0  0  0
    4.7699    0.4264   -2.2738 H   0  0  0  0  0  0  0  0  0  0  0  0
    1.2139   -0.3814   -2.3805 H   0  0  0  0  0  0  0  0  0  0  0  0
    2.0317   -2.4599   -1.9210 H   0  0  0  0  0  0  0  0  0  0  0  0
    2.3320   -2.1630   -0.2118 H   0  0  0  0  0  0  0  0  0  0  0  0
    0.1851   -2.7569    0.3548 H   0  0  0  0  0  0  0  0  0  0  0  0
   -0.0576   -3.2776   -1.3171 H   0  0  0  0  0  0  0  0  0  0  0  0
   -0.8137   -1.1612   -2.0259 H   0  0  0  0  0  0  0  0  0  0  0  0
   -1.9579   -1.2426    0.7749 H   0  0  0  0  0  0  0  0  0  0  0  0
   -2.6358   -3.2532   -0.1269 H   0  0  0  0  0  0  0  0  0  0  0  0
   -2.6345   -2.6668   -1.7841 H   0  0  0  0  0  0  0  0  0  0  0  0
   -4.9712   -3.0371   -1.0251 H   0  0  0  0  0  0  0  0  0  0  0  0
   -6.9708   -1.8305   -0.3457 H   0  0  0  0  0  0  0  0  0  0  0  0
   -6.6359   -0.7870   -1.7329 H   0  0  0  0  0  0  0  0  0  0  0  0
   -8.1675    0.4119   -0.4005 H   0  0  0  0  0  0  0  0  0  0  0  0
   -7.7705   -0.8868    1.4905 H   0  0  0  0  0  0  0  0  0  0  0  0
   -6.9450    2.2624   -0.7890 H   0  0  0  0  0  0  0  0  0  0  0  0
   -6.4033    2.1357    0.8720 H   0  0  0  0  0  0  0  0  0  0  0  0
   -4.4445    2.4034   -0.3598 H   0  0  0  0  0  0  0  0  0  0  0  0
   -4.9952    1.4154   -1.6994 H   0  0  0  0  0  0  0  0  0  0  0  0
   -3.6146    1.2780    1.8038 H   0  0  0  0  0  0  0  0  0  0  0  0
   -5.0798    0.3409    1.9830 H   0  0  0  0  0  0  0  0  0  0  0  0
   -3.5478   -0.4844    1.9354 H   0  0  0  0  0  0  0  0  0  0  0  0
   -2.9058    0.1404   -1.7876 H   0  0  0  0  0  0  0  0  0  0  0  0
   -2.3172    2.2920   -0.8734 H   0  0  0  0  0  0  0  0  0  0  0  0
   -1.7932    1.5987    0.6480 H   0  0  0  0  0  0  0  0  0  0  0  0
   -0.5054    1.2786   -2.0956 H   0  0  0  0  0  0  0  0  0  0  0  0
    0.1500    2.1474   -0.7177 H   0  0  0  0  0  0  0  0  0  0  0  0
   -0.4688   -0.0190    1.5749 H   0  0  0  0  0  0  0  0  0  0  0  0
    0.9230    0.9806    1.3191 H   0  0  0  0  0  0  0  0  0  0  0  0
    1.0958   -0.7760    1.3754 H   0  0  0  0  0  0  0  0  0  0  0  0
  1  2  1  0
  2  3  1  0
  2  4  1  0
  4  5  1  0
  4  6  1  0
  6  7  1  0
  7  8  1  0
  8  9  1  0
  8 10  1  0
 10 11  1  0
 11 12  1  0
 12 13  1  0
 13 14  1  0
 14 15  1  0
 15 16  1  0
 16 17  2  0
 17 18  1  0
 18 19  1  0
 19 20  1  0
 19 21  1  0
 21 22  1  0
 22 23  1  0
 23 24  1  1
 23 25  1  0
 25 26  1  0
 26 27  1  0
 27 28  1  0
 28 29  1  1
 28 10  1  0
 28 13  1  0
 25 14  1  0
 23 17  1  0
  1 30  1  0
  1 31  1  0
  1 32  1  0
  2 33  1  0
  3 34  1  0
  3 35  1  0
  3 36  1  0
  4 37  1  6
  5 38  1  0
  6 39  1  0
  6 40  1  0
  7 41  1  0
  7 42  1  0
  8 43  1  6
  9 44  1  0
  9 45  1  0
  9 46  1  0
 10 47  1  6
 11 48  1  0
 11 49  1  0
 12 50  1  0
 12 51  1  0
 13 52  1  6
 14 53  1  1
 15 54  1  0
 15 55  1  0
 16 56  1  0
 18 57  1  0
 18 58  1  0
 19 59  1  6
 20 60  1  0
 21 61  1  0
 21 62  1  0
 22 63  1  0
 22 64  1  0
 24 65  1  0
 24 66  1  0
 24 67  1  0
 25 68  1  6
 26 69  1  0
 26 70  1  0
 27 71  1  0
 27 72  1  0
 29 73  1  0
 29 74  1  0
 29 75  1  0
M  END
>  <QED>  (82) 
0.525

>  <MW>  (82) 
402.7

$$$$
CHEMBL3581544
     RDKit          3D

 62 65  0  0  0  0  0  0  0  0999 V2000
    8.9338   -0.5474   -1.8265 C   0  0  0  0  0  0  0  0  0  0  0  0
    8.0518   -1.5327   -1.1016 C   0  0  0  0  0  0  0  0  0  0  0  0
    8.5176   -2.5889   -0.6749 O   0  0  0  0  0  0  0  0  0  0  0  0
    6.7225   -1.1846   -0.9423 N   0  0  0  0  0  0  0  0  0  0  0  0
    6.1356    0.0817   -1.3917 C   0  0  0  0  0  0  0  0  0  0  0  0
    4.7800    0.3990   -0.7312 C   0  0  0  0  0  0  0  0  0  0  0  0
    3.8288   -0.7125   -0.8978 N   0  0  0  0  0  0  0  0  0  0  0  0
    2.4591   -0.5171   -0.7840 C   0  0  0  0  0  0  0  0  0  0  0  0
    1.5414   -1.4862   -1.2258 C   0  0  0  0  0  0  0  0  0  0  0  0
    0.1536   -1.3059   -1.1265 C   0  0  0  0  0  0  0  0  0  0  0  0
   -0.3703   -0.1370   -0.5696 C   0  0  0  0  0  0  0  0  0  0  0  0
   -1.8553    0.0832   -0.4605 C   0  0  0  0  0  0  0  0  0  0  0  0
   -2.3540    0.2670    0.9349 N   0  0  0  0  0  0  0  0  0  0  0  0
   -2.4801   -1.0340    1.6961 C   0  0  0  0  0  0  0  0  0  0  0  0
   -1.1941   -1.8445    2.0206 C   0  0  0  0  0  0  0  0  0  0  0  0
   -1.8779   -2.2687    3.3337 C   0  0  0  0  0  0  0  0  0  0  0  0
   -2.6819   -0.9598    3.2363 C   0  0  0  0  0  0  0  0  0  0  0  0
   -3.4911    1.5483    1.1136 S   0  0  0  0  0  0  0  0  0  0  0  0
   -3.0431    2.6663    0.3101 O   0  0  0  0  0  0  0  0  0  0  0  0
   -3.7658    1.7016    2.5270 O   0  0  0  0  0  0  0  0  0  0  0  0
   -4.9449    0.8271    0.3341 C   0  0  0  0  0  0  0  0  0  0  0  0
   -6.0853    1.8123    0.3927 C   0  0  0  0  0  0  0  0  0  0  0  0
   -6.9650    1.8231    1.4863 C   0  0  0  0  0  0  0  0  0  0  0  0
   -8.0180    2.7395    1.5357 C   0  0  0  0  0  0  0  0  0  0  0  0
   -9.0913    2.7292    2.8810 Cl  0  0  0  0  0  0  0  0  0  0  0  0
   -8.2113    3.6565    0.5070 C   0  0  0  0  0  0  0  0  0  0  0  0
   -7.3372    3.6550   -0.5758 C   0  0  0  0  0  0  0  0  0  0  0  0
   -7.5641    4.7829   -1.8557 Cl  0  0  0  0  0  0  0  0  0  0  0  0
   -6.2798    2.7443   -0.6384 C   0  0  0  0  0  0  0  0  0  0  0  0
    0.5291    0.8386   -0.1481 C   0  0  0  0  0  0  0  0  0  0  0  0
    0.0773    1.9913    0.3644 F   0  0  0  0  0  0  0  0  0  0  0  0
    1.9103    0.6561   -0.2502 C   0  0  0  0  0  0  0  0  0  0  0  0
    4.3874   -2.0806   -0.8829 C   0  0  0  0  0  0  0  0  0  0  0  0
    5.8084   -2.1251   -0.2921 C   0  0  0  0  0  0  0  0  0  0  0  0
    9.1147    0.3254   -1.1941 H   0  0  0  0  0  0  0  0  0  0  0  0
    8.4801   -0.2459   -2.7740 H   0  0  0  0  0  0  0  0  0  0  0  0
    9.8948   -1.0204   -2.0506 H   0  0  0  0  0  0  0  0  0  0  0  0
    6.0068   -0.0013   -2.4777 H   0  0  0  0  0  0  0  0  0  0  0  0
    6.8377    0.8991   -1.1999 H   0  0  0  0  0  0  0  0  0  0  0  0
    4.9265    0.5918    0.3387 H   0  0  0  0  0  0  0  0  0  0  0  0
    4.3971    1.3150   -1.1965 H   0  0  0  0  0  0  0  0  0  0  0  0
    1.8959   -2.4053   -1.6866 H   0  0  0  0  0  0  0  0  0  0  0  0
   -0.5036   -2.0921   -1.4906 H   0  0  0  0  0  0  0  0  0  0  0  0
   -2.0945    0.9434   -1.0952 H   0  0  0  0  0  0  0  0  0  0  0  0
   -2.3952   -0.7613   -0.9086 H   0  0  0  0  0  0  0  0  0  0  0  0
   -3.2495   -1.6615    1.2224 H   0  0  0  0  0  0  0  0  0  0  0  0
   -0.2955   -1.2375    2.1800 H   0  0  0  0  0  0  0  0  0  0  0  0
   -0.9596   -2.6653    1.3383 H   0  0  0  0  0  0  0  0  0  0  0  0
   -2.4900   -3.1734    3.2434 H   0  0  0  0  0  0  0  0  0  0  0  0
   -1.2237   -2.3639    4.2036 H   0  0  0  0  0  0  0  0  0  0  0  0
   -3.7163   -1.0179    3.5848 H   0  0  0  0  0  0  0  0  0  0  0  0
   -2.1847   -0.1127    3.7236 H   0  0  0  0  0  0  0  0  0  0  0  0
   -5.2009   -0.0932    0.8673 H   0  0  0  0  0  0  0  0  0  0  0  0
   -4.6984    0.5824   -0.7031 H   0  0  0  0  0  0  0  0  0  0  0  0
   -6.8255    1.1253    2.3107 H   0  0  0  0  0  0  0  0  0  0  0  0
   -9.0310    4.3677    0.5512 H   0  0  0  0  0  0  0  0  0  0  0  0
   -5.6007    2.7733   -1.4890 H   0  0  0  0  0  0  0  0  0  0  0  0
    2.5371    1.4590    0.1225 H   0  0  0  0  0  0  0  0  0  0  0  0
    4.4104   -2.4571   -1.9127 H   0  0  0  0  0  0  0  0  0  0  0  0
    3.7628   -2.7557   -0.2853 H   0  0  0  0  0  0  0  0  0  0  0  0
    6.1997   -3.1461   -0.3547 H   0  0  0  0  0  0  0  0  0  0  0  0
    5.7794   -1.8499    0.7694 H   0  0  0  0  0  0  0  0  0  0  0  0
  1  2  1  0
  2  3  2  0
  2  4  1  0
  4  5  1  0
  5  6  1  0
  6  7  1  0
  7  8  1  0
  8  9  1  0
  9 10  2  0
 10 11  1  0
 11 12  1  0
 12 13  1  0
 13 14  1  0
 14 15  1  0
 15 16  1  0
 16 17  1  0
 13 18  1  0
 18 19  2  0
 18 20  2  0
 18 21  1  0
 21 22  1  0
 22 23  2  0
 23 24  1  0
 24 25  1  0
 24 26  2  0
 26 27  1  0
 27 28  1  0
 27 29  2  0
 11 30  2  0
 30 31  1  0
 30 32  1  0
  7 33  1  0
 33 34  1  0
 34  4  1  0
 32  8  2  0
 17 14  1  0
 29 22  1  0
  1 35  1  0
  1 36  1  0
  1 37  1  0
  5 38  1  0
  5 39  1  0
  6 40  1  0
  6 41  1  0
  9 42  1  0
 10 43  1  0
 12 44  1  0
 12 45  1  0
 14 46  1  0
 15 47  1  0
 15 48  1  0
 16 49  1  0
 16 50  1  0
 17 51  1  0
 17 52  1  0
 21 53  1  0
 21 54  1  0
 23 55  1  0
 26 56  1  0
 29 57  1  0
 32 58  1  0
 33 59  1  0
 33 60  1  0
 34 61  1  0
 34 62  1  0
M  END
>  <QED>  (83) 
0.524

>  <MW>  (83) 
528.5

$$$$
CHEMBL3596627
     RDKit          3D

 50 52  0  0  0  0  0  0  0  0999 V2000
   -1.0768   -4.1606   -1.1562 C   0  0  0  0  0  0  0  0  0  0  0  0
   -0.5792   -2.9484   -0.3908 C   0  0  0  0  0  0  0  0  0  0  0  0
   -0.3246   -1.9008   -1.3394 O   0  0  0  0  0  0  0  0  0  0  0  0
    0.1213   -0.7804   -0.6770 C   0  0  0  0  0  0  0  0  0  0  0  0
    1.5088   -0.6683   -0.5104 C   0  0  0  0  0  0  0  0  0  0  0  0
    2.0595    0.3883    0.2234 C   0  0  0  0  0  0  0  0  0  0  0  0
    3.5130    0.5064    0.4138 C   0  0  0  0  0  0  0  0  0  0  0  0
    4.2030    1.5495   -0.2352 C   0  0  0  0  0  0  0  0  0  0  0  0
    5.5903    1.7056   -0.0987 C   0  0  0  0  0  0  0  0  0  0  0  0
    6.2465    2.8320   -0.8144 C   0  0  0  0  0  0  0  0  0  0  0  0
    7.5843    2.7216   -1.0750 N   0  0  0  0  0  0  0  0  0  0  0  0
    5.6136    3.8101   -1.1894 O   0  0  0  0  0  0  0  0  0  0  0  0
    6.3075    0.8248    0.7155 C   0  0  0  0  0  0  0  0  0  0  0  0
    5.6415   -0.2132    1.3705 C   0  0  0  0  0  0  0  0  0  0  0  0
    4.2586   -0.3746    1.2206 C   0  0  0  0  0  0  0  0  0  0  0  0
    3.5175   -1.6771    2.0875 Cl  0  0  0  0  0  0  0  0  0  0  0  0
    1.1846    1.3383    0.7644 C   0  0  0  0  0  0  0  0  0  0  0  0
   -0.2005    1.2406    0.5701 C   0  0  0  0  0  0  0  0  0  0  0  0
   -0.7632    0.1903   -0.1688 C   0  0  0  0  0  0  0  0  0  0  0  0
   -2.1826    0.1539   -0.4111 N   0  0  0  0  0  0  0  0  0  0  0  0
   -2.6319   -0.3765   -1.6999 C   0  0  0  0  0  0  0  0  0  0  0  0
   -3.0894    0.5859    0.5703 C   0  0  0  0  0  0  0  0  0  0  0  0
   -2.8125    0.9946    1.6963 O   0  0  0  0  0  0  0  0  0  0  0  0
   -4.5245    0.5098    0.2723 C   0  0  0  0  0  0  0  0  0  0  0  0
   -5.1741   -0.7128    0.4305 C   0  0  0  0  0  0  0  0  0  0  0  0
   -4.4913   -1.8104    0.7871 F   0  0  0  0  0  0  0  0  0  0  0  0
   -6.5431   -0.8240    0.2012 C   0  0  0  0  0  0  0  0  0  0  0  0
   -7.2729    0.3008   -0.1819 C   0  0  0  0  0  0  0  0  0  0  0  0
   -6.6276    1.5312   -0.3351 C   0  0  0  0  0  0  0  0  0  0  0  0
   -5.2516    1.6404   -0.1043 C   0  0  0  0  0  0  0  0  0  0  0  0
   -4.5079    3.1802   -0.3365 Cl  0  0  0  0  0  0  0  0  0  0  0  0
   -0.3335   -4.4827   -1.8930 H   0  0  0  0  0  0  0  0  0  0  0  0
   -1.9906   -3.9198   -1.7092 H   0  0  0  0  0  0  0  0  0  0  0  0
   -1.2843   -4.9922   -0.4770 H   0  0  0  0  0  0  0  0  0  0  0  0
   -1.3429   -2.6374    0.3324 H   0  0  0  0  0  0  0  0  0  0  0  0
    0.3411   -3.2114    0.1449 H   0  0  0  0  0  0  0  0  0  0  0  0
    2.1546   -1.4294   -0.9424 H   0  0  0  0  0  0  0  0  0  0  0  0
    3.6506    2.2482   -0.8649 H   0  0  0  0  0  0  0  0  0  0  0  0
    8.0684    1.8363   -1.0469 H   0  0  0  0  0  0  0  0  0  0  0  0
    7.9734    3.4414   -1.6718 H   0  0  0  0  0  0  0  0  0  0  0  0
    7.3748    0.9466    0.8757 H   0  0  0  0  0  0  0  0  0  0  0  0
    6.2041   -0.8898    2.0102 H   0  0  0  0  0  0  0  0  0  0  0  0
    1.5719    2.1761    1.3419 H   0  0  0  0  0  0  0  0  0  0  0  0
   -0.8239    2.0310    0.9819 H   0  0  0  0  0  0  0  0  0  0  0  0
   -2.8929   -1.4321   -1.5850 H   0  0  0  0  0  0  0  0  0  0  0  0
   -3.5188    0.1613   -2.0468 H   0  0  0  0  0  0  0  0  0  0  0  0
   -1.8683   -0.2440   -2.4724 H   0  0  0  0  0  0  0  0  0  0  0  0
   -7.0319   -1.7859    0.3274 H   0  0  0  0  0  0  0  0  0  0  0  0
   -8.3436    0.2220   -0.3584 H   0  0  0  0  0  0  0  0  0  0  0  0
   -7.2046    2.4045   -0.6328 H   0  0  0  0  0  0  0  0  0  0  0  0
  1  2  1  0
  2  3  1  0
  3  4  1  0
  4  5  1  0
  5  6  2  0
  6  7  1  0
  7  8  1  0
  8  9  2  0
  9 10  1  0
 10 11  1  0
 10 12  2  0
  9 13  1  0
 13 14  2  0
 14 15  1  0
 15 16  1  0
  6 17  1  0
 17 18  2  0
 18 19  1  0
 19 20  1  0
 20 21  1  0
 20 22  1  0
 22 23  2  0
 22 24  1  0
 24 25  2  0
 25 26  1  0
 25 27  1  0
 27 28  2  0
 28 29  1  0
 29 30  2  0
 30 31  1  0
 19  4  2  0
 30 24  1  0
 15  7  2  0
  1 32  1  0
  1 33  1  0
  1 34  1  0
  2 35  1  0
  2 36  1  0
  5 37  1  0
  8 38  1  0
 11 39  1  0
 11 40  1  0
 13 41  1  0
 14 42  1  0
 17 43  1  0
 18 44  1  0
 21 45  1  0
 21 46  1  0
 21 47  1  0
 27 48  1  0
 28 49  1  0
 29 50  1  0
M  END
>  <QED>  (84) 
0.522

>  <MW>  (84) 
461.3

$$$$
CHEMBL3609397
     RDKit          3D

 52 54  0  0  0  0  0  0  0  0999 V2000
   -5.3819    3.3762    2.9433 C   0  0  0  0  0  0  0  0  0  0  0  0
   -4.7055    2.1934    2.2794 C   0  0  0  0  0  0  0  0  0  0  0  0
   -5.8094    0.7990    2.1448 S   0  0  0  0  0  0  0  0  0  0  0  0
   -6.1103    0.3263    3.4833 O   0  0  0  0  0  0  0  0  0  0  0  0
   -6.8708    1.1342    1.2152 O   0  0  0  0  0  0  0  0  0  0  0  0
   -4.7974   -0.4363    1.3606 C   0  0  0  0  0  0  0  0  0  0  0  0
   -4.2132   -1.4469    2.1272 C   0  0  0  0  0  0  0  0  0  0  0  0
   -3.4284   -2.4178    1.5022 C   0  0  0  0  0  0  0  0  0  0  0  0
   -3.2275   -2.3831    0.1142 C   0  0  0  0  0  0  0  0  0  0  0  0
   -2.3756   -3.4291   -0.5675 C   0  0  0  0  0  0  0  0  0  0  0  0
   -1.1495   -2.8431   -1.2542 C   0  0  0  0  0  0  0  0  0  0  0  0
   -1.0434   -2.8714   -2.4765 O   0  0  0  0  0  0  0  0  0  0  0  0
   -0.2306   -2.3241   -0.3559 N   0  0  0  0  0  0  0  0  0  0  0  0
    1.0055   -1.7125   -0.6447 C   0  0  0  0  0  0  0  0  0  0  0  0
    1.7465   -1.2277    0.4389 C   0  0  0  0  0  0  0  0  0  0  0  0
    2.9833   -0.6037    0.2385 C   0  0  0  0  0  0  0  0  0  0  0  0
    3.5088   -0.4460   -1.0509 C   0  0  0  0  0  0  0  0  0  0  0  0
    4.8062    0.2148   -1.2635 C   0  0  0  0  0  0  0  0  0  0  0  0
    5.9791   -0.3574   -0.7411 C   0  0  0  0  0  0  0  0  0  0  0  0
    7.2266    0.2396   -0.9435 C   0  0  0  0  0  0  0  0  0  0  0  0
    7.3261    1.4178   -1.6793 C   0  0  0  0  0  0  0  0  0  0  0  0
    6.1785    2.0064   -2.2054 C   0  0  0  0  0  0  0  0  0  0  0  0
    4.9284    1.4215   -1.9785 C   0  0  0  0  0  0  0  0  0  0  0  0
    3.8163    2.0075   -2.5263 O   0  0  0  0  0  0  0  0  0  0  0  0
    3.3622    3.0892   -1.7209 C   0  0  0  0  0  0  0  0  0  0  0  0
    4.2100    4.1388   -1.8068 F   0  0  0  0  0  0  0  0  0  0  0  0
    3.2232    2.7363   -0.4242 F   0  0  0  0  0  0  0  0  0  0  0  0
    2.1552    3.4931   -2.1778 F   0  0  0  0  0  0  0  0  0  0  0  0
    2.7609   -0.9374   -2.1296 C   0  0  0  0  0  0  0  0  0  0  0  0
    1.5239   -1.5645   -1.9299 C   0  0  0  0  0  0  0  0  0  0  0  0
   -3.8397   -1.3720   -0.6434 C   0  0  0  0  0  0  0  0  0  0  0  0
   -4.6278   -0.4012   -0.0247 C   0  0  0  0  0  0  0  0  0  0  0  0
   -4.6889    4.2199    3.0150 H   0  0  0  0  0  0  0  0  0  0  0  0
   -6.2578    3.7007    2.3724 H   0  0  0  0  0  0  0  0  0  0  0  0
   -5.7173    3.1226    3.9540 H   0  0  0  0  0  0  0  0  0  0  0  0
   -3.8378    1.8744    2.8646 H   0  0  0  0  0  0  0  0  0  0  0  0
   -4.3808    2.4612    1.2696 H   0  0  0  0  0  0  0  0  0  0  0  0
   -4.3718   -1.4942    3.2028 H   0  0  0  0  0  0  0  0  0  0  0  0
   -2.9881   -3.2081    2.1075 H   0  0  0  0  0  0  0  0  0  0  0  0
   -2.9829   -3.9552   -1.3141 H   0  0  0  0  0  0  0  0  0  0  0  0
   -2.0373   -4.1894    0.1472 H   0  0  0  0  0  0  0  0  0  0  0  0
   -0.4967   -2.3437    0.6206 H   0  0  0  0  0  0  0  0  0  0  0  0
    1.3755   -1.3221    1.4560 H   0  0  0  0  0  0  0  0  0  0  0  0
    3.5309   -0.2263    1.1000 H   0  0  0  0  0  0  0  0  0  0  0  0
    5.9273   -1.2901   -0.1818 H   0  0  0  0  0  0  0  0  0  0  0  0
    8.1217   -0.2243   -0.5360 H   0  0  0  0  0  0  0  0  0  0  0  0
    8.2984    1.8739   -1.8484 H   0  0  0  0  0  0  0  0  0  0  0  0
    6.2632    2.9180   -2.7917 H   0  0  0  0  0  0  0  0  0  0  0  0
    3.1384   -0.8375   -3.1461 H   0  0  0  0  0  0  0  0  0  0  0  0
    0.9941   -1.9240   -2.8065 H   0  0  0  0  0  0  0  0  0  0  0  0
   -3.7103   -1.3409   -1.7254 H   0  0  0  0  0  0  0  0  0  0  0  0
   -5.1094    0.3652   -0.6288 H   0  0  0  0  0  0  0  0  0  0  0  0
  1  2  1  0
  2  3  1  0
  3  4  2  0
  3  5  2  0
  3  6  1  0
  6  7  1  0
  7  8  2  0
  8  9  1  0
  9 10  1  0
 10 11  1  0
 11 12  2  0
 11 13  1  0
 13 14  1  0
 14 15  1  0
 15 16  2  0
 16 17  1  0
 17 18  1  0
 18 19  2  0
 19 20  1  0
 20 21  2  0
 21 22  1  0
 22 23  2  0
 23 24  1  0
 24 25  1  0
 25 26  1  0
 25 27  1  0
 25 28  1  0
 17 29  2  0
 29 30  1  0
  9 31  2  0
 31 32  1  0
 32  6  2  0
 30 14  2  0
 23 18  1  0
  1 33  1  0
  1 34  1  0
  1 35  1  0
  2 36  1  0
  2 37  1  0
  7 38  1  0
  8 39  1  0
 10 40  1  0
 10 41  1  0
 13 42  1  0
 15 43  1  0
 16 44  1  0
 19 45  1  0
 20 46  1  0
 21 47  1  0
 22 48  1  0
 29 49  1  0
 30 50  1  0
 31 51  1  0
 32 52  1  0
M  END
>  <QED>  (85) 
0.521

>  <MW>  (85) 
463.5

$$$$
CHEMBL3361048
     RDKit          3D

 65 67  0  0  0  0  0  0  0  0999 V2000
   -4.2676   -2.3174   -1.2531 C   0  0  0  0  0  0  0  0  0  0  0  0
   -2.8975   -2.2180   -0.5870 C   0  0  0  0  0  0  0  0  0  0  0  0
   -1.8693   -1.6063   -1.5338 C   0  0  0  0  0  0  0  0  0  0  0  0
   -2.9289   -1.5473    0.7984 C   0  0  0  0  0  0  0  0  0  0  0  0
   -3.0449   -0.0373    0.7640 N   0  0  0  0  0  0  0  0  0  0  0  0
   -4.4799    0.3648    0.9395 C   0  0  0  0  0  0  0  0  0  0  0  0
   -4.8163    1.8413    0.8451 C   0  0  0  0  0  0  0  0  0  0  0  0
   -5.4537    2.4416    1.9508 C   0  0  0  0  0  0  0  0  0  0  0  0
   -5.8037    3.7913    1.9405 C   0  0  0  0  0  0  0  0  0  0  0  0
   -5.5247    4.5700    0.8256 C   0  0  0  0  0  0  0  0  0  0  0  0
   -4.8969    3.9971   -0.2791 C   0  0  0  0  0  0  0  0  0  0  0  0
   -4.5406    2.6322   -0.2939 C   0  0  0  0  0  0  0  0  0  0  0  0
   -3.8548    2.0823   -1.5225 C   0  0  0  0  0  0  0  0  0  0  0  0
   -3.9681    2.9054   -2.6087 F   0  0  0  0  0  0  0  0  0  0  0  0
   -2.5180    1.8878   -1.3641 F   0  0  0  0  0  0  0  0  0  0  0  0
   -4.3740    0.8940   -1.9357 F   0  0  0  0  0  0  0  0  0  0  0  0
   -2.0072    0.7298    1.9312 S   0  0  0  0  0  0  0  0  0  0  0  0
   -2.2858    0.1027    3.2083 O   0  0  0  0  0  0  0  0  0  0  0  0
   -2.0766    2.1656    1.7772 O   0  0  0  0  0  0  0  0  0  0  0  0
   -0.3714    0.2569    1.4212 C   0  0  0  0  0  0  0  0  0  0  0  0
    0.1788    0.8298    0.2788 C   0  0  0  0  0  0  0  0  0  0  0  0
    1.4744    0.4760   -0.1162 C   0  0  0  0  0  0  0  0  0  0  0  0
    2.2551   -0.4397    0.6126 C   0  0  0  0  0  0  0  0  0  0  0  0
    3.5375   -0.7768    0.2074 N   0  0  0  0  0  0  0  0  0  0  0  0
    4.4915   -1.4361    1.1158 C   0  0  0  0  0  0  0  0  0  0  0  0
    5.9426   -1.1752    0.6717 C   0  0  0  0  0  0  0  0  0  0  0  0
    6.1971   -1.6552   -0.7140 N   0  0  0  0  0  0  0  0  0  0  0  0
    7.6753   -1.2665   -1.4138 S   0  0  0  0  0  0  0  0  0  0  0  0
    7.4714    0.4524   -1.8417 C   0  0  0  0  0  0  0  0  0  0  0  0
    8.6884   -1.3500   -0.3842 O   0  0  0  0  0  0  0  0  0  0  0  0
    7.7918   -2.0147   -2.6469 O   0  0  0  0  0  0  0  0  0  0  0  0
    4.9929   -1.7444   -1.5841 C   0  0  0  0  0  0  0  0  0  0  0  0
    3.9168   -0.7056   -1.2155 C   0  0  0  0  0  0  0  0  0  0  0  0
    1.6742   -0.9735    1.7766 C   0  0  0  0  0  0  0  0  0  0  0  0
    0.3791   -0.6313    2.1868 C   0  0  0  0  0  0  0  0  0  0  0  0
   -4.6214   -1.3521   -1.6162 H   0  0  0  0  0  0  0  0  0  0  0  0
   -4.2219   -2.9896   -2.1173 H   0  0  0  0  0  0  0  0  0  0  0  0
   -5.0131   -2.7217   -0.5608 H   0  0  0  0  0  0  0  0  0  0  0  0
   -2.5822   -3.2558   -0.4077 H   0  0  0  0  0  0  0  0  0  0  0  0
   -0.8693   -1.6389   -1.0915 H   0  0  0  0  0  0  0  0  0  0  0  0
   -2.1077   -0.5679   -1.7785 H   0  0  0  0  0  0  0  0  0  0  0  0
   -1.8289   -2.1672   -2.4739 H   0  0  0  0  0  0  0  0  0  0  0  0
   -2.0073   -1.8430    1.3085 H   0  0  0  0  0  0  0  0  0  0  0  0
   -3.7392   -1.9745    1.4026 H   0  0  0  0  0  0  0  0  0  0  0  0
   -4.8285   -0.0300    1.9040 H   0  0  0  0  0  0  0  0  0  0  0  0
   -5.0938   -0.1409    0.1879 H   0  0  0  0  0  0  0  0  0  0  0  0
   -5.6693    1.8600    2.8461 H   0  0  0  0  0  0  0  0  0  0  0  0
   -6.2829    4.2354    2.8092 H   0  0  0  0  0  0  0  0  0  0  0  0
   -5.7861    5.6251    0.8182 H   0  0  0  0  0  0  0  0  0  0  0  0
   -4.6782    4.6289   -1.1396 H   0  0  0  0  0  0  0  0  0  0  0  0
   -0.3855    1.5526   -0.3056 H   0  0  0  0  0  0  0  0  0  0  0  0
    1.8748    0.9604   -1.0031 H   0  0  0  0  0  0  0  0  0  0  0  0
    4.2912   -2.5143    1.1351 H   0  0  0  0  0  0  0  0  0  0  0  0
    4.3889   -1.0487    2.1364 H   0  0  0  0  0  0  0  0  0  0  0  0
    6.1444   -0.1002    0.7314 H   0  0  0  0  0  0  0  0  0  0  0  0
    6.6203   -1.6950    1.3574 H   0  0  0  0  0  0  0  0  0  0  0  0
    8.3963    0.7869   -2.3175 H   0  0  0  0  0  0  0  0  0  0  0  0
    6.6430    0.5530   -2.5444 H   0  0  0  0  0  0  0  0  0  0  0  0
    7.2959    1.0353   -0.9370 H   0  0  0  0  0  0  0  0  0  0  0  0
    5.2560   -1.6234   -2.6399 H   0  0  0  0  0  0  0  0  0  0  0  0
    4.5852   -2.7570   -1.4761 H   0  0  0  0  0  0  0  0  0  0  0  0
    4.2915    0.3027   -1.4277 H   0  0  0  0  0  0  0  0  0  0  0  0
    3.0513   -0.8900   -1.8636 H   0  0  0  0  0  0  0  0  0  0  0  0
    2.2160   -1.6899    2.3882 H   0  0  0  0  0  0  0  0  0  0  0  0
   -0.0265   -1.0655    3.0975 H   0  0  0  0  0  0  0  0  0  0  0  0
  1  2  1  0
  2  3  1  0
  2  4  1  0
  4  5  1  0
  5  6  1  0
  6  7  1  0
  7  8  2  0
  8  9  1  0
  9 10  2  0
 10 11  1  0
 11 12  2  0
 12 13  1  0
 13 14  1  0
 13 15  1  0
 13 16  1  0
  5 17  1  0
 17 18  2  0
 17 19  2  0
 17 20  1  0
 20 21  1  0
 21 22  2  0
 22 23  1  0
 23 24  1  0
 24 25  1  0
 25 26  1  0
 26 27  1  0
 27 28  1  0
 28 29  1  0
 28 30  2  0
 28 31  2  0
 27 32  1  0
 32 33  1  0
 23 34  2  0
 34 35  1  0
 12  7  1  0
 35 20  2  0
 33 24  1  0
  1 36  1  0
  1 37  1  0
  1 38  1  0
  2 39  1  0
  3 40  1  0
  3 41  1  0
  3 42  1  0
  4 43  1  0
  4 44  1  0
  6 45  1  0
  6 46  1  0
  8 47  1  0
  9 48  1  0
 10 49  1  0
 11 50  1  0
 21 51  1  0
 22 52  1  0
 25 53  1  0
 25 54  1  0
 26 55  1  0
 26 56  1  0
 29 57  1  0
 29 58  1  0
 29 59  1  0
 32 60  1  0
 32 61  1  0
 33 62  1  0
 33 63  1  0
 34 64  1  0
 35 65  1  0
M  END
>  <QED>  (86) 
0.518

>  <MW>  (86) 
533.6

$$$$
CHEMBL169046
     RDKit          3D

 75 78  0  0  0  0  0  0  0  0999 V2000
   -3.2062   -2.1301    0.1340 C   0  0  0  0  0  0  0  0  0  0  0  0
   -2.8204   -0.6828    0.4601 C   0  0  2  0  0  0  0  0  0  0  0  0
   -3.0702    0.2353   -0.7567 C   0  0  0  0  0  0  0  0  0  0  0  0
   -4.5211    0.3144   -1.2583 C   0  0  0  0  0  0  0  0  0  0  0  0
   -5.4949    0.9066   -0.2308 C   0  0  0  0  0  0  0  0  0  0  0  0
   -6.9467    1.0514   -0.7369 C   0  0  0  0  0  0  0  0  0  0  0  0
   -7.0604    2.0008   -1.9305 C   0  0  0  0  0  0  0  0  0  0  0  0
   -7.8466    1.5468    0.4004 C   0  0  0  0  0  0  0  0  0  0  0  0
   -7.4328   -0.2251   -1.1569 O   0  0  0  0  0  0  0  0  0  0  0  0
   -1.4029   -0.4586    1.0636 C   0  0  1  0  0  0  0  0  0  0  0  0
   -1.1825   -1.2003    2.4141 C   0  0  0  0  0  0  0  0  0  0  0  0
    0.3304   -1.4246    2.5534 C   0  0  0  0  0  0  0  0  0  0  0  0
    0.9284   -0.5804    1.4367 C   0  0  1  0  0  0  0  0  0  0  0  0
    2.3860   -0.8368    1.0340 C   0  0  2  0  0  0  0  0  0  0  0  0
    3.3180   -0.7138    2.2499 C   0  0  0  0  0  0  0  0  0  0  0  0
    4.7540   -0.4846    1.9020 C   0  0  0  0  0  0  0  0  0  0  0  0
    5.2021   -0.2008    0.6670 C   0  0  0  0  0  0  0  0  0  0  0  0
    6.6501    0.1559    0.4306 C   0  0  0  0  0  0  0  0  0  0  0  0
    6.7876    1.6236   -0.0066 C   0  0  1  0  0  0  0  0  0  0  0  0
    7.8857    1.7164   -0.9181 O   0  0  0  0  0  0  0  0  0  0  0  0
    5.5209    2.1732   -0.6805 C   0  0  0  0  0  0  0  0  0  0  0  0
    4.7970    1.0765   -1.4684 C   0  0  0  0  0  0  0  0  0  0  0  0
    4.2861   -0.0914   -0.5611 C   0  0  1  0  0  0  0  0  0  0  0  0
    4.4090   -1.4045   -1.3708 C   0  0  0  0  0  0  0  0  0  0  0  0
    2.7979    0.1594   -0.0940 C   0  0  1  0  0  0  0  0  0  0  0  0
    1.7577    0.1712   -1.2465 C   0  0  0  0  0  0  0  0  0  0  0  0
    0.3005    0.3284   -0.7739 C   0  0  0  0  0  0  0  0  0  0  0  0
   -0.0859   -0.7304    0.2734 C   0  0  2  0  0  0  0  0  0  0  0  0
   -0.0761   -2.1316   -0.3730 C   0  0  0  0  0  0  0  0  0  0  0  0
   -2.7961   -2.4605   -0.8235 H   0  0  0  0  0  0  0  0  0  0  0  0
   -2.8927   -2.8374    0.9040 H   0  0  0  0  0  0  0  0  0  0  0  0
   -4.2956   -2.2222    0.0584 H   0  0  0  0  0  0  0  0  0  0  0  0
   -3.5052   -0.3660    1.2579 H   0  0  0  0  0  0  0  0  0  0  0  0
   -2.7315    1.2524   -0.5229 H   0  0  0  0  0  0  0  0  0  0  0  0
   -2.4631   -0.1154   -1.5980 H   0  0  0  0  0  0  0  0  0  0  0  0
   -4.5149    0.9421   -2.1566 H   0  0  0  0  0  0  0  0  0  0  0  0
   -4.8622   -0.6762   -1.5777 H   0  0  0  0  0  0  0  0  0  0  0  0
   -5.5078    0.2500    0.6471 H   0  0  0  0  0  0  0  0  0  0  0  0
   -5.1219    1.8831    0.1029 H   0  0  0  0  0  0  0  0  0  0  0  0
   -6.6397    2.9857   -1.7034 H   0  0  0  0  0  0  0  0  0  0  0  0
   -6.5579    1.5975   -2.8157 H   0  0  0  0  0  0  0  0  0  0  0  0
   -8.1094    2.1341   -2.2206 H   0  0  0  0  0  0  0  0  0  0  0  0
   -8.8927    1.5978    0.0771 H   0  0  0  0  0  0  0  0  0  0  0  0
   -7.5423    2.5379    0.7524 H   0  0  0  0  0  0  0  0  0  0  0  0
   -7.8214    0.8545    1.2499 H   0  0  0  0  0  0  0  0  0  0  0  0
   -7.3641   -0.8350   -0.4025 H   0  0  0  0  0  0  0  0  0  0  0  0
   -1.3839    0.6137    1.3214 H   0  0  0  0  0  0  0  0  0  0  0  0
   -1.5586   -0.5843    3.2394 H   0  0  0  0  0  0  0  0  0  0  0  0
   -1.6970   -2.1618    2.4765 H   0  0  0  0  0  0  0  0  0  0  0  0
    0.6877   -1.1187    3.5419 H   0  0  0  0  0  0  0  0  0  0  0  0
    0.5737   -2.4855    2.4265 H   0  0  0  0  0  0  0  0  0  0  0  0
    0.8881    0.4638    1.7915 H   0  0  0  0  0  0  0  0  0  0  0  0
    2.4768   -1.8634    0.6635 H   0  0  0  0  0  0  0  0  0  0  0  0
    3.2417   -1.6245    2.8562 H   0  0  0  0  0  0  0  0  0  0  0  0
    2.9994    0.1186    2.8900 H   0  0  0  0  0  0  0  0  0  0  0  0
    5.4504   -0.5081    2.7380 H   0  0  0  0  0  0  0  0  0  0  0  0
    7.0752   -0.5172   -0.3244 H   0  0  0  0  0  0  0  0  0  0  0  0
    7.2598   -0.0043    1.3289 H   0  0  0  0  0  0  0  0  0  0  0  0
    7.0352    2.2491    0.8591 H   0  0  0  0  0  0  0  0  0  0  0  0
    8.0003    2.6559   -1.1413 H   0  0  0  0  0  0  0  0  0  0  0  0
    5.7729    2.9980   -1.3570 H   0  0  0  0  0  0  0  0  0  0  0  0
    4.8411    2.5747    0.0810 H   0  0  0  0  0  0  0  0  0  0  0  0
    5.4943    0.6907   -2.2252 H   0  0  0  0  0  0  0  0  0  0  0  0
    3.9808    1.5317   -2.0353 H   0  0  0  0  0  0  0  0  0  0  0  0
    4.0315   -2.2706   -0.8188 H   0  0  0  0  0  0  0  0  0  0  0  0
    5.4532   -1.6241   -1.6239 H   0  0  0  0  0  0  0  0  0  0  0  0
    3.8678   -1.3452   -2.3205 H   0  0  0  0  0  0  0  0  0  0  0  0
    2.7660    1.1679    0.3483 H   0  0  0  0  0  0  0  0  0  0  0  0
    1.8320   -0.7454   -1.8390 H   0  0  0  0  0  0  0  0  0  0  0  0
    1.9664    0.9952   -1.9360 H   0  0  0  0  0  0  0  0  0  0  0  0
    0.1719    1.3364   -0.3591 H   0  0  0  0  0  0  0  0  0  0  0  0
   -0.3498    0.2690   -1.6514 H   0  0  0  0  0  0  0  0  0  0  0  0
   -0.4454   -2.9076    0.3040 H   0  0  0  0  0  0  0  0  0  0  0  0
   -0.6984   -2.1443   -1.2731 H   0  0  0  0  0  0  0  0  0  0  0  0
    0.9210   -2.4462   -0.6918 H   0  0  0  0  0  0  0  0  0  0  0  0
  1  2  1  0
  2  3  1  0
  3  4  1  0
  4  5  1  0
  5  6  1  0
  6  7  1  0
  6  8  1  0
  6  9  1  0
  2 10  1  0
 10 11  1  0
 11 12  1  0
 12 13  1  0
 13 14  1  0
 14 15  1  0
 15 16  1  0
 16 17  2  0
 17 18  1  0
 18 19  1  0
 19 20  1  0
 19 21  1  0
 21 22  1  0
 22 23  1  0
 23 24  1  6
 23 25  1  0
 25 26  1  0
 26 27  1  0
 27 28  1  0
 28 29  1  6
 28 10  1  0
 28 13  1  0
 25 14  1  0
 23 17  1  0
  1 30  1  0
  1 31  1  0
  1 32  1  0
  2 33  1  1
  3 34  1  0
  3 35  1  0
  4 36  1  0
  4 37  1  0
  5 38  1  0
  5 39  1  0
  7 40  1  0
  7 41  1  0
  7 42  1  0
  8 43  1  0
  8 44  1  0
  8 45  1  0
  9 46  1  0
 10 47  1  1
 11 48  1  0
 11 49  1  0
 12 50  1  0
 12 51  1  0
 13 52  1  1
 14 53  1  6
 15 54  1  0
 15 55  1  0
 16 56  1  0
 18 57  1  0
 18 58  1  0
 19 59  1  1
 20 60  1  0
 21 61  1  0
 21 62  1  0
 22 63  1  0
 22 64  1  0
 24 65  1  0
 24 66  1  0
 24 67  1  0
 25 68  1  1
 26 69  1  0
 26 70  1  0
 27 71  1  0
 27 72  1  0
 29 73  1  0
 29 74  1  0
 29 75  1  0
M  END
>  <QED>  (87) 
0.515

>  <MW>  (87) 
402.7

$$$$
CHEMBL1233249
     RDKit          3D

 75 78  0  0  0  0  0  0  0  0999 V2000
   -6.4596   -1.7441    0.5913 C   0  0  0  0  0  0  0  0  0  0  0  0
   -6.9530   -0.3155    0.3571 C   0  0  0  0  0  0  0  0  0  0  0  0
   -8.2788   -0.1006    1.0915 C   0  0  0  0  0  0  0  0  0  0  0  0
   -5.9295    0.7435    0.8081 C   0  0  0  0  0  0  0  0  0  0  0  0
   -4.6131    0.6945    0.0216 C   0  0  0  0  0  0  0  0  0  0  0  0
   -3.6799    1.8324    0.4413 C   0  0  0  0  0  0  0  0  0  0  0  0
   -2.3794    2.0247   -0.3932 C   0  0  1  0  0  0  0  0  0  0  0  0
   -2.7482    2.4964   -1.8063 C   0  0  0  0  0  0  0  0  0  0  0  0
   -1.7124    3.1418    0.2180 O   0  0  0  0  0  0  0  0  0  0  0  0
   -1.4352    0.7800   -0.3230 C   0  0  1  0  0  0  0  0  0  0  0  0
   -1.7316   -0.3631   -1.3373 C   0  0  0  0  0  0  0  0  0  0  0  0
   -0.4115   -1.1215   -1.5568 C   0  0  0  0  0  0  0  0  0  0  0  0
    0.5291   -0.5373   -0.5134 C   0  0  1  0  0  0  0  0  0  0  0  0
    2.0358   -0.7629   -0.6890 C   0  0  2  0  0  0  0  0  0  0  0  0
    2.3524   -2.2622   -0.8080 C   0  0  0  0  0  0  0  0  0  0  0  0
    3.7747   -2.6159   -0.5124 C   0  0  0  0  0  0  0  0  0  0  0  0
    4.6776   -1.7673    0.0080 C   0  0  0  0  0  0  0  0  0  0  0  0
    6.0528   -2.2468    0.4066 C   0  0  0  0  0  0  0  0  0  0  0  0
    6.2359   -2.1761    1.9316 C   0  0  1  0  0  0  0  0  0  0  0  0
    7.6052   -1.8646    2.2024 O   0  0  0  0  0  0  0  0  0  0  0  0
    5.3348   -1.1257    2.5990 C   0  0  0  0  0  0  0  0  0  0  0  0
    5.1107    0.0747    1.6737 C   0  0  0  0  0  0  0  0  0  0  0  0
    4.3630   -0.3040    0.3524 C   0  0  1  0  0  0  0  0  0  0  0  0
    4.9274    0.5877   -0.7795 C   0  0  0  0  0  0  0  0  0  0  0  0
    2.8017   -0.1183    0.5077 C   0  0  1  0  0  0  0  0  0  0  0  0
    2.3516    1.3486    0.7436 C   0  0  0  0  0  0  0  0  0  0  0  0
    0.8243    1.5369    0.7996 C   0  0  0  0  0  0  0  0  0  0  0  0
    0.1198    0.9539   -0.4392 C   0  0  2  0  0  0  0  0  0  0  0  0
    0.5156    1.7631   -1.6945 C   0  0  0  0  0  0  0  0  0  0  0  0
   -5.5855   -1.9706   -0.0266 H   0  0  0  0  0  0  0  0  0  0  0  0
   -6.1879   -1.9034    1.6402 H   0  0  0  0  0  0  0  0  0  0  0  0
   -7.2364   -2.4709    0.3297 H   0  0  0  0  0  0  0  0  0  0  0  0
   -7.1400   -0.1889   -0.7168 H   0  0  0  0  0  0  0  0  0  0  0  0
   -8.1575   -0.2186    2.1737 H   0  0  0  0  0  0  0  0  0  0  0  0
   -9.0321   -0.8205    0.7542 H   0  0  0  0  0  0  0  0  0  0  0  0
   -8.6710    0.9040    0.9014 H   0  0  0  0  0  0  0  0  0  0  0  0
   -5.7185    0.6241    1.8786 H   0  0  0  0  0  0  0  0  0  0  0  0
   -6.3762    1.7385    0.6848 H   0  0  0  0  0  0  0  0  0  0  0  0
   -4.8333    0.7491   -1.0488 H   0  0  0  0  0  0  0  0  0  0  0  0
   -4.1210   -0.2606    0.2178 H   0  0  0  0  0  0  0  0  0  0  0  0
   -3.4084    1.6900    1.4969 H   0  0  0  0  0  0  0  0  0  0  0  0
   -4.2381    2.7795    0.4288 H   0  0  0  0  0  0  0  0  0  0  0  0
   -3.3269    1.7595   -2.3679 H   0  0  0  0  0  0  0  0  0  0  0  0
   -3.3480    3.4140   -1.7562 H   0  0  0  0  0  0  0  0  0  0  0  0
   -1.8673    2.7614   -2.3948 H   0  0  0  0  0  0  0  0  0  0  0  0
   -1.5822    2.9350    1.1591 H   0  0  0  0  0  0  0  0  0  0  0  0
   -1.5984    0.3506    0.6788 H   0  0  0  0  0  0  0  0  0  0  0  0
   -2.0891   -0.0006   -2.3040 H   0  0  0  0  0  0  0  0  0  0  0  0
   -2.4883   -1.0482   -0.9452 H   0  0  0  0  0  0  0  0  0  0  0  0
   -0.5486   -2.2002   -1.4294 H   0  0  0  0  0  0  0  0  0  0  0  0
   -0.0382   -0.9546   -2.5734 H   0  0  0  0  0  0  0  0  0  0  0  0
    0.2557   -1.0145    0.4431 H   0  0  0  0  0  0  0  0  0  0  0  0
    2.3583   -0.2907   -1.6233 H   0  0  0  0  0  0  0  0  0  0  0  0
    1.7222   -2.8390   -0.1193 H   0  0  0  0  0  0  0  0  0  0  0  0
    2.1059   -2.6033   -1.8208 H   0  0  0  0  0  0  0  0  0  0  0  0
    4.0503   -3.6523   -0.6977 H   0  0  0  0  0  0  0  0  0  0  0  0
    6.8139   -1.6451   -0.1057 H   0  0  0  0  0  0  0  0  0  0  0  0
    6.2357   -3.2770    0.0756 H   0  0  0  0  0  0  0  0  0  0  0  0
    6.0358   -3.1576    2.3772 H   0  0  0  0  0  0  0  0  0  0  0  0
    7.7221   -1.8798    3.1676 H   0  0  0  0  0  0  0  0  0  0  0  0
    4.3643   -1.5737    2.8453 H   0  0  0  0  0  0  0  0  0  0  0  0
    5.7796   -0.7796    3.5391 H   0  0  0  0  0  0  0  0  0  0  0  0
    4.5781    0.8516    2.2284 H   0  0  0  0  0  0  0  0  0  0  0  0
    6.0936    0.5080    1.4416 H   0  0  0  0  0  0  0  0  0  0  0  0
    4.4252    0.4136   -1.7360 H   0  0  0  0  0  0  0  0  0  0  0  0
    4.8378    1.6517   -0.5380 H   0  0  0  0  0  0  0  0  0  0  0  0
    5.9946    0.3979   -0.9460 H   0  0  0  0  0  0  0  0  0  0  0  0
    2.5006   -0.6727    1.4107 H   0  0  0  0  0  0  0  0  0  0  0  0
    2.7518    2.0023   -0.0368 H   0  0  0  0  0  0  0  0  0  0  0  0
    2.7594    1.7217    1.6884 H   0  0  0  0  0  0  0  0  0  0  0  0
    0.6186    2.6072    0.9024 H   0  0  0  0  0  0  0  0  0  0  0  0
    0.4439    1.0576    1.7107 H   0  0  0  0  0  0  0  0  0  0  0  0
    0.2694    2.8224   -1.5676 H   0  0  0  0  0  0  0  0  0  0  0  0
    1.5873    1.7212   -1.9057 H   0  0  0  0  0  0  0  0  0  0  0  0
    0.0087    1.4088   -2.5970 H   0  0  0  0  0  0  0  0  0  0  0  0
  1  2  1  0
  2  3  1  0
  2  4  1  0
  4  5  1  0
  5  6  1  0
  6  7  1  0
  7  8  1  0
  7  9  1  1
  7 10  1  0
 10 11  1  0
 11 12  1  0
 12 13  1  0
 13 14  1  0
 14 15  1  0
 15 16  1  0
 16 17  2  0
 17 18  1  0
 18 19  1  0
 19 20  1  0
 19 21  1  0
 21 22  1  0
 22 23  1  0
 23 24  1  6
 23 25  1  0
 25 26  1  0
 26 27  1  0
 27 28  1  0
 28 29  1  6
 28 10  1  0
 28 13  1  0
 25 14  1  0
 23 17  1  0
  1 30  1  0
  1 31  1  0
  1 32  1  0
  2 33  1  0
  3 34  1  0
  3 35  1  0
  3 36  1  0
  4 37  1  0
  4 38  1  0
  5 39  1  0
  5 40  1  0
  6 41  1  0
  6 42  1  0
  8 43  1  0
  8 44  1  0
  8 45  1  0
  9 46  1  0
 10 47  1  1
 11 48  1  0
 11 49  1  0
 12 50  1  0
 12 51  1  0
 13 52  1  1
 14 53  1  6
 15 54  1  0
 15 55  1  0
 16 56  1  0
 18 57  1  0
 18 58  1  0
 19 59  1  1
 20 60  1  0
 21 61  1  0
 21 62  1  0
 22 63  1  0
 22 64  1  0
 24 65  1  0
 24 66  1  0
 24 67  1  0
 25 68  1  1
 26 69  1  0
 26 70  1  0
 27 71  1  0
 27 72  1  0
 29 73  1  0
 29 74  1  0
 29 75  1  0
M  END
>  <QED>  (88) 
0.515

>  <MW>  (88) 
402.7

$$$$
CHEMBL3609410
     RDKit          3D

 49 51  0  0  0  0  0  0  0  0999 V2000
    3.6469   -2.5945    2.1413 C   0  0  0  0  0  0  0  0  0  0  0  0
    4.8680   -1.7163    2.3230 C   0  0  0  0  0  0  0  0  0  0  0  0
    5.8538   -1.5576    0.8479 S   0  0  0  0  0  0  0  0  0  0  0  0
    6.9154   -0.6061    1.1169 O   0  0  0  0  0  0  0  0  0  0  0  0
    6.1639   -2.8900    0.3634 O   0  0  0  0  0  0  0  0  0  0  0  0
    4.7699   -0.7906   -0.3345 C   0  0  0  0  0  0  0  0  0  0  0  0
    4.2768   -1.5291   -1.4124 C   0  0  0  0  0  0  0  0  0  0  0  0
    3.4288   -0.9156   -2.3361 C   0  0  0  0  0  0  0  0  0  0  0  0
    3.0737    0.4334   -2.1869 C   0  0  0  0  0  0  0  0  0  0  0  0
    2.1427    1.0991   -3.1746 C   0  0  0  0  0  0  0  0  0  0  0  0
    0.8435    1.5766   -2.5389 C   0  0  0  0  0  0  0  0  0  0  0  0
    0.5414    2.7657   -2.5435 O   0  0  0  0  0  0  0  0  0  0  0  0
    0.0867    0.5409   -2.0121 N   0  0  0  0  0  0  0  0  0  0  0  0
   -1.1391    0.6348   -1.3216 C   0  0  0  0  0  0  0  0  0  0  0  0
   -1.8019    1.8321   -1.0610 C   0  0  0  0  0  0  0  0  0  0  0  0
   -3.0092    1.8381   -0.3467 C   0  0  0  0  0  0  0  0  0  0  0  0
   -3.7490    3.3800   -0.0577 Cl  0  0  0  0  0  0  0  0  0  0  0  0
   -3.5933    0.6460    0.1240 C   0  0  0  0  0  0  0  0  0  0  0  0
   -4.8560    0.6555    0.8925 C   0  0  0  0  0  0  0  0  0  0  0  0
   -6.0835    0.6251    0.2047 C   0  0  0  0  0  0  0  0  0  0  0  0
   -7.2958    0.6351    0.8974 C   0  0  0  0  0  0  0  0  0  0  0  0
   -7.3045    0.6752    2.2888 C   0  0  0  0  0  0  0  0  0  0  0  0
   -6.1002    0.7051    2.9912 C   0  0  0  0  0  0  0  0  0  0  0  0
   -4.8777    0.6955    2.3033 C   0  0  0  0  0  0  0  0  0  0  0  0
   -3.6600    0.7225    3.0650 C   0  0  0  0  0  0  0  0  0  0  0  0
   -2.6723    0.7354    3.6751 N   0  0  0  0  0  0  0  0  0  0  0  0
   -2.9145   -0.5536   -0.1589 C   0  0  0  0  0  0  0  0  0  0  0  0
   -3.5316   -2.0901    0.3539 Cl  0  0  0  0  0  0  0  0  0  0  0  0
   -1.7059   -0.5583   -0.8674 C   0  0  0  0  0  0  0  0  0  0  0  0
    3.5979    1.1671   -1.1106 C   0  0  0  0  0  0  0  0  0  0  0  0
    4.4484    0.5600   -0.1864 C   0  0  0  0  0  0  0  0  0  0  0  0
    3.9249   -3.5969    1.8011 H   0  0  0  0  0  0  0  0  0  0  0  0
    3.1106   -2.6952    3.0900 H   0  0  0  0  0  0  0  0  0  0  0  0
    2.9535   -2.1713    1.4086 H   0  0  0  0  0  0  0  0  0  0  0  0
    5.5250   -2.1421    3.0886 H   0  0  0  0  0  0  0  0  0  0  0  0
    4.5822   -0.7105    2.6453 H   0  0  0  0  0  0  0  0  0  0  0  0
    4.5527   -2.5734   -1.5458 H   0  0  0  0  0  0  0  0  0  0  0  0
    3.0593   -1.4982   -3.1781 H   0  0  0  0  0  0  0  0  0  0  0  0
    1.8891    0.4201   -3.9978 H   0  0  0  0  0  0  0  0  0  0  0  0
    2.6549    1.9584   -3.6241 H   0  0  0  0  0  0  0  0  0  0  0  0
    0.4881   -0.3867   -2.0894 H   0  0  0  0  0  0  0  0  0  0  0  0
   -1.3983    2.7843   -1.3926 H   0  0  0  0  0  0  0  0  0  0  0  0
   -6.1009    0.5961   -0.8838 H   0  0  0  0  0  0  0  0  0  0  0  0
   -8.2345    0.6132    0.3482 H   0  0  0  0  0  0  0  0  0  0  0  0
   -8.2496    0.6839    2.8269 H   0  0  0  0  0  0  0  0  0  0  0  0
   -6.1201    0.7362    4.0794 H   0  0  0  0  0  0  0  0  0  0  0  0
   -1.2116   -1.5086   -1.0564 H   0  0  0  0  0  0  0  0  0  0  0  0
    3.3501    2.2218   -0.9908 H   0  0  0  0  0  0  0  0  0  0  0  0
    4.8611    1.1473    0.6313 H   0  0  0  0  0  0  0  0  0  0  0  0
  1  2  1  0
  2  3  1  0
  3  4  2  0
  3  5  2  0
  3  6  1  0
  6  7  1  0
  7  8  2  0
  8  9  1  0
  9 10  1  0
 10 11  1  0
 11 12  2  0
 11 13  1  0
 13 14  1  0
 14 15  1  0
 15 16  2  0
 16 17  1  0
 16 18  1  0
 18 19  1  0
 19 20  2  0
 20 21  1  0
 21 22  2  0
 22 23  1  0
 23 24  2  0
 24 25  1  0
 25 26  3  0
 18 27  2  0
 27 28  1  0
 27 29  1  0
  9 30  2  0
 30 31  1  0
 31  6  2  0
 29 14  2  0
 24 19  1  0
  1 32  1  0
  1 33  1  0
  1 34  1  0
  2 35  1  0
  2 36  1  0
  7 37  1  0
  8 38  1  0
 10 39  1  0
 10 40  1  0
 13 41  1  0
 15 42  1  0
 20 43  1  0
 21 44  1  0
 22 45  1  0
 23 46  1  0
 29 47  1  0
 30 48  1  0
 31 49  1  0
M  END
>  <QED>  (89) 
0.512

>  <MW>  (89) 
473.4

$$$$
CHEMBL3609395
     RDKit          3D

 50 52  0  0  0  0  0  0  0  0999 V2000
    7.6564    0.5043    0.4005 C   0  0  0  0  0  0  0  0  0  0  0  0
    7.1171    1.8740    0.7573 C   0  0  0  0  0  0  0  0  0  0  0  0
    5.5059    1.8311    1.5141 S   0  0  0  0  0  0  0  0  0  0  0  0
    5.5424    0.9002    2.6261 O   0  0  0  0  0  0  0  0  0  0  0  0
    5.0730    3.2015    1.7182 O   0  0  0  0  0  0  0  0  0  0  0  0
    4.4429    1.1439    0.2653 C   0  0  0  0  0  0  0  0  0  0  0  0
    4.0630   -0.1975    0.3346 C   0  0  0  0  0  0  0  0  0  0  0  0
    3.2154   -0.7215   -0.6422 C   0  0  0  0  0  0  0  0  0  0  0  0
    2.7275    0.0947   -1.6750 C   0  0  0  0  0  0  0  0  0  0  0  0
    1.7958   -0.4736   -2.7230 C   0  0  0  0  0  0  0  0  0  0  0  0
    0.5041   -1.0670   -2.1731 C   0  0  0  0  0  0  0  0  0  0  0  0
    0.1072   -2.1573   -2.5752 O   0  0  0  0  0  0  0  0  0  0  0  0
   -0.1470   -0.2439   -1.2691 N   0  0  0  0  0  0  0  0  0  0  0  0
   -1.3705   -0.4831   -0.6102 C   0  0  0  0  0  0  0  0  0  0  0  0
   -1.7892    0.4769    0.3171 C   0  0  0  0  0  0  0  0  0  0  0  0
   -2.9919    0.3211    1.0138 C   0  0  0  0  0  0  0  0  0  0  0  0
   -3.8145   -0.7954    0.7958 C   0  0  0  0  0  0  0  0  0  0  0  0
   -5.0678   -0.9248    1.5483 C   0  0  0  0  0  0  0  0  0  0  0  0
   -4.9199   -1.5439    2.7499 N   0  0  0  0  0  0  0  0  0  0  0  0
   -6.0188   -1.7224    3.5120 C   0  0  0  0  0  0  0  0  0  0  0  0
   -7.2793   -1.2952    3.1447 C   0  0  0  0  0  0  0  0  0  0  0  0
   -7.4181   -0.6435    1.9246 C   0  0  0  0  0  0  0  0  0  0  0  0
   -6.2993   -0.4435    1.1000 C   0  0  0  0  0  0  0  0  0  0  0  0
   -6.4254    0.2838   -0.2047 C   0  0  0  0  0  0  0  0  0  0  0  0
   -6.0313   -0.4493   -1.2801 F   0  0  0  0  0  0  0  0  0  0  0  0
   -5.6938    1.4331   -0.2395 F   0  0  0  0  0  0  0  0  0  0  0  0
   -7.7064    0.6682   -0.4799 F   0  0  0  0  0  0  0  0  0  0  0  0
   -3.3802   -1.7599   -0.1295 C   0  0  0  0  0  0  0  0  0  0  0  0
   -4.3161   -3.1811   -0.4592 Cl  0  0  0  0  0  0  0  0  0  0  0  0
   -2.1737   -1.6025   -0.8276 C   0  0  0  0  0  0  0  0  0  0  0  0
    3.1124    1.4431   -1.7248 C   0  0  0  0  0  0  0  0  0  0  0  0
    3.9631    1.9713   -0.7528 C   0  0  0  0  0  0  0  0  0  0  0  0
    7.6982   -0.1484    1.2780 H   0  0  0  0  0  0  0  0  0  0  0  0
    8.6692    0.5922   -0.0051 H   0  0  0  0  0  0  0  0  0  0  0  0
    7.0363    0.0133   -0.3550 H   0  0  0  0  0  0  0  0  0  0  0  0
    7.7826    2.3614    1.4774 H   0  0  0  0  0  0  0  0  0  0  0  0
    7.0528    2.5126   -0.1290 H   0  0  0  0  0  0  0  0  0  0  0  0
    4.4164   -0.8394    1.1393 H   0  0  0  0  0  0  0  0  0  0  0  0
    2.9285   -1.7715   -0.5860 H   0  0  0  0  0  0  0  0  0  0  0  0
    2.3343   -1.2566   -3.2709 H   0  0  0  0  0  0  0  0  0  0  0  0
    1.5167    0.2939   -3.4550 H   0  0  0  0  0  0  0  0  0  0  0  0
    0.3364    0.6071   -1.0053 H   0  0  0  0  0  0  0  0  0  0  0  0
   -1.1850    1.3581    0.5207 H   0  0  0  0  0  0  0  0  0  0  0  0
   -3.2845    1.0780    1.7402 H   0  0  0  0  0  0  0  0  0  0  0  0
   -5.8505   -2.2347    4.4551 H   0  0  0  0  0  0  0  0  0  0  0  0
   -8.1323   -1.4625    3.7932 H   0  0  0  0  0  0  0  0  0  0  0  0
   -8.4013   -0.2903    1.6176 H   0  0  0  0  0  0  0  0  0  0  0  0
   -1.8881   -2.3731   -1.5366 H   0  0  0  0  0  0  0  0  0  0  0  0
    2.7492    2.0944   -2.5182 H   0  0  0  0  0  0  0  0  0  0  0  0
    4.2380    3.0236   -0.7919 H   0  0  0  0  0  0  0  0  0  0  0  0
  1  2  1  0
  2  3  1  0
  3  4  2  0
  3  5  2  0
  3  6  1  0
  6  7  1  0
  7  8  2  0
  8  9  1  0
  9 10  1  0
 10 11  1  0
 11 12  2  0
 11 13  1  0
 13 14  1  0
 14 15  1  0
 15 16  2  0
 16 17  1  0
 17 18  1  0
 18 19  1  0
 19 20  2  0
 20 21  1  0
 21 22  2  0
 22 23  1  0
 23 24  1  0
 24 25  1  0
 24 26  1  0
 24 27  1  0
 17 28  2  0
 28 29  1  0
 28 30  1  0
  9 31  2  0
 31 32  1  0
 32  6  2  0
 30 14  2  0
 23 18  2  0
  1 33  1  0
  1 34  1  0
  1 35  1  0
  2 36  1  0
  2 37  1  0
  7 38  1  0
  8 39  1  0
 10 40  1  0
 10 41  1  0
 13 42  1  0
 15 43  1  0
 16 44  1  0
 20 45  1  0
 21 46  1  0
 22 47  1  0
 30 48  1  0
 31 49  1  0
 32 50  1  0
M  END
>  <QED>  (90) 
0.51

>  <MW>  (90) 
482.9

$$$$
CHEMBL3598053
     RDKit          3D

 68 72  0  0  0  0  0  0  0  0999 V2000
   -3.9948    2.0234   -1.5482 H   0  0  0  0  0  0  0  0  0  0  0  0
   -3.7526    1.0212   -1.9129 C   0  0  0  0  0  0  0  0  0  0  0  0
   -3.0516    1.0710   -2.7516 H   0  0  0  0  0  0  0  0  0  0  0  0
   -4.6770    0.5702   -2.2897 H   0  0  0  0  0  0  0  0  0  0  0  0
   -3.2263    0.2212   -0.8132 N   0  0  0  0  0  0  0  0  0  0  0  0
   -4.1641   -0.3202    0.0784 C   0  0  0  0  0  0  0  0  0  0  0  0
   -5.3822   -0.2443   -0.0937 O   0  0  0  0  0  0  0  0  0  0  0  0
   -3.7191   -0.9846    1.3248 C   0  0  0  0  0  0  0  0  0  0  0  0
   -4.0738   -2.3235    1.5932 C   0  0  0  0  0  0  0  0  0  0  0  0
   -4.9091   -3.1310    0.6383 C   0  0  0  0  0  0  0  0  0  0  0  0
   -3.6577   -2.9020    2.8042 C   0  0  0  0  0  0  0  0  0  0  0  0
   -2.9061   -2.1696    3.7263 C   0  0  0  0  0  0  0  0  0  0  0  0
   -2.5769   -0.8432    3.4592 C   0  0  0  0  0  0  0  0  0  0  0  0
   -2.9927   -0.2545    2.2683 C   0  0  0  0  0  0  0  0  0  0  0  0
   -2.6930    1.0362    2.0660 F   0  0  0  0  0  0  0  0  0  0  0  0
   -1.8113   -0.0119   -0.7804 C   0  0  0  0  0  0  0  0  0  0  0  0
   -1.3526   -1.3267   -0.5819 C   0  0  0  0  0  0  0  0  0  0  0  0
    0.0089   -1.6229   -0.5578 C   0  0  0  0  0  0  0  0  0  0  0  0
    0.9421   -0.6061   -0.7309 C   0  0  0  0  0  0  0  0  0  0  0  0
    2.3644   -0.9036   -0.6745 C   0  0  0  0  0  0  0  0  0  0  0  0
    3.1785   -1.3913   -1.6794 C   0  0  0  0  0  0  0  0  0  0  0  0
    4.4615   -1.5038   -1.1174 C   0  0  0  0  0  0  0  0  0  0  0  0
    5.6376   -1.9323   -1.6801 N   0  0  0  0  0  0  0  0  0  0  0  0
    5.7930   -2.3629   -2.9745 C   0  0  0  0  0  0  0  0  0  0  0  0
    7.2083   -2.7743   -3.2932 C   0  0  0  0  0  0  0  0  0  0  0  0
    4.9117   -2.4438   -3.8251 O   0  0  0  0  0  0  0  0  0  0  0  0
    4.4706   -1.1195    0.1581 N   0  0  0  0  0  0  0  0  0  0  0  0
    3.1895   -0.7645    0.4201 N   0  0  0  0  0  0  0  0  0  0  0  0
    2.8902   -0.2978    1.7734 C   0  0  0  0  0  0  0  0  0  0  0  0
    1.7541   -1.0584    2.4565 C   0  0  0  0  0  0  0  0  0  0  0  0
    2.6808    1.2141    1.8357 C   0  0  0  0  0  0  0  0  0  0  0  0
    0.4996    0.6963   -0.9899 C   0  0  0  0  0  0  0  0  0  0  0  0
   -0.8688    1.0290   -1.0213 C   0  0  0  0  0  0  0  0  0  0  0  0
   -1.2752    2.3571   -1.1899 N   0  0  0  0  0  0  0  0  0  0  0  0
   -0.5830    3.2549   -2.1233 C   0  0  0  0  0  0  0  0  0  0  0  0
   -0.9211    4.6295   -1.6278 C   0  0  0  0  0  0  0  0  0  0  0  0
   -0.2530    5.2185   -0.4115 C   0  0  0  0  0  0  0  0  0  0  0  0
   -1.5740    4.5026   -0.2919 C   0  0  0  0  0  0  0  0  0  0  0  0
   -1.6615    3.0457    0.0542 C   0  0  0  0  0  0  0  0  0  0  0  0
   -4.5506   -3.0163   -0.3896 H   0  0  0  0  0  0  0  0  0  0  0  0
   -5.9567   -2.8204    0.6975 H   0  0  0  0  0  0  0  0  0  0  0  0
   -4.8580   -4.1994    0.8745 H   0  0  0  0  0  0  0  0  0  0  0  0
   -3.9239   -3.9312    3.0401 H   0  0  0  0  0  0  0  0  0  0  0  0
   -2.5926   -2.6312    4.6598 H   0  0  0  0  0  0  0  0  0  0  0  0
   -2.0111   -0.2575    4.1768 H   0  0  0  0  0  0  0  0  0  0  0  0
   -2.0520   -2.1523   -0.4923 H   0  0  0  0  0  0  0  0  0  0  0  0
    0.3320   -2.6499   -0.4042 H   0  0  0  0  0  0  0  0  0  0  0  0
    2.8711   -1.6277   -2.6888 H   0  0  0  0  0  0  0  0  0  0  0  0
    6.4151   -1.9091   -1.0366 H   0  0  0  0  0  0  0  0  0  0  0  0
    7.5050   -2.3246   -4.2450 H   0  0  0  0  0  0  0  0  0  0  0  0
    7.2545   -3.8639   -3.3697 H   0  0  0  0  0  0  0  0  0  0  0  0
    7.9130   -2.4422   -2.5258 H   0  0  0  0  0  0  0  0  0  0  0  0
    3.7963   -0.5156    2.3570 H   0  0  0  0  0  0  0  0  0  0  0  0
    1.8628   -2.1398    2.3222 H   0  0  0  0  0  0  0  0  0  0  0  0
    0.7726   -0.7620    2.0766 H   0  0  0  0  0  0  0  0  0  0  0  0
    1.7542   -0.8515    3.5325 H   0  0  0  0  0  0  0  0  0  0  0  0
    2.6614    1.5540    2.8769 H   0  0  0  0  0  0  0  0  0  0  0  0
    3.4893    1.7462    1.3229 H   0  0  0  0  0  0  0  0  0  0  0  0
    1.7360    1.5170    1.3771 H   0  0  0  0  0  0  0  0  0  0  0  0
    1.2510    1.4687   -1.1247 H   0  0  0  0  0  0  0  0  0  0  0  0
   -0.9687    3.1004   -3.1363 H   0  0  0  0  0  0  0  0  0  0  0  0
    0.5037    3.1367   -2.1399 H   0  0  0  0  0  0  0  0  0  0  0  0
   -1.3592    5.2778   -2.3716 H   0  0  0  0  0  0  0  0  0  0  0  0
    0.6343    4.7333   -0.0213 H   0  0  0  0  0  0  0  0  0  0  0  0
   -0.2520    6.2973   -0.3077 H   0  0  0  0  0  0  0  0  0  0  0  0
   -2.4747    5.0623   -0.0883 H   0  0  0  0  0  0  0  0  0  0  0  0
   -2.6848    2.7891    0.3422 H   0  0  0  0  0  0  0  0  0  0  0  0
   -0.9814    2.8133    0.8825 H   0  0  0  0  0  0  0  0  0  0  0  0
  1  2  1  0
  2  3  1  0
  2  4  1  0
  2  5  1  0
  5  6  1  0
  6  7  2  0
  6  8  1  0
  8  9  1  0
  9 10  1  0
  9 11  2  0
 11 12  1  0
 12 13  2  0
 13 14  1  0
 14 15  1  0
  5 16  1  0
 16 17  1  0
 17 18  2  0
 18 19  1  0
 19 20  1  0
 20 21  2  0
 21 22  1  0
 22 23  1  0
 23 24  1  0
 24 25  1  0
 24 26  2  0
 22 27  2  0
 27 28  1  0
 28 29  1  0
 29 30  1  0
 29 31  1  0
 19 32  2  0
 32 33  1  0
 33 34  1  0
 34 35  1  0
 35 36  1  0
 36 37  1  0
 37 38  1  0
 38 39  1  0
 14  8  2  0
 33 16  2  0
 39 34  1  0
 28 20  1  0
 38 36  1  0
 10 40  1  0
 10 41  1  0
 10 42  1  0
 11 43  1  0
 12 44  1  0
 13 45  1  0
 17 46  1  0
 18 47  1  0
 21 48  1  0
 23 49  1  0
 25 50  1  0
 25 51  1  0
 25 52  1  0
 29 53  1  0
 30 54  1  0
 30 55  1  0
 30 56  1  0
 31 57  1  0
 31 58  1  0
 31 59  1  0
 32 60  1  0
 35 61  1  0
 35 62  1  0
 36 63  1  0
 37 64  1  0
 37 65  1  0
 38 66  1  0
 39 67  1  0
 39 68  1  0
M  ISO  3   1   2   3   2   4   2
M  END
>  <QED>  (91) 
0.509

>  <MW>  (91) 
492.6

$$$$
CHEMBL3217768
     RDKit          3D

 75 78  0  0  0  0  0  0  0  0999 V2000
    7.4143   -0.4735   -0.1914 C   0  0  0  0  0  0  0  0  0  0  0  0
    6.8817    0.9193    0.1569 C   0  0  0  0  0  0  0  0  0  0  0  0
    7.9957    1.9498   -0.0797 C   0  0  0  0  0  0  0  0  0  0  0  0
    7.5891    3.2202    0.4138 O   0  0  0  0  0  0  0  0  0  0  0  0
    5.6220    1.2633   -0.6709 C   0  0  0  0  0  0  0  0  0  0  0  0
    4.2930    1.0458    0.0696 C   0  0  0  0  0  0  0  0  0  0  0  0
    4.0143   -0.4131    0.4421 C   0  0  0  0  0  0  0  0  0  0  0  0
    2.6235   -0.6796    1.0796 C   0  0  1  0  0  0  0  0  0  0  0  0
    2.5128    0.0647    2.4136 C   0  0  0  0  0  0  0  0  0  0  0  0
    1.4426   -0.3705    0.1193 C   0  0  1  0  0  0  0  0  0  0  0  0
    1.5758   -1.1262   -1.2346 C   0  0  0  0  0  0  0  0  0  0  0  0
    0.1539   -1.3855   -1.7499 C   0  0  0  0  0  0  0  0  0  0  0  0
   -0.7303   -0.5913   -0.8002 C   0  0  1  0  0  0  0  0  0  0  0  0
   -2.2250   -0.9311   -0.7496 C   0  0  2  0  0  0  0  0  0  0  0  0
   -2.8525   -0.8433   -2.1496 C   0  0  0  0  0  0  0  0  0  0  0  0
   -4.3402   -0.6936   -2.1483 C   0  0  0  0  0  0  0  0  0  0  0  0
   -5.0797   -0.4498   -1.0528 C   0  0  0  0  0  0  0  0  0  0  0  0
   -6.5595   -0.1709   -1.1625 C   0  0  0  0  0  0  0  0  0  0  0  0
   -6.8728    1.2820   -0.7684 C   0  0  1  0  0  0  0  0  0  0  0  0
   -8.1587    1.3070   -0.1430 O   0  0  0  0  0  0  0  0  0  0  0  0
   -5.8318    1.8854    0.1871 C   0  0  0  0  0  0  0  0  0  0  0  0
   -5.2563    0.8155    1.1205 C   0  0  0  0  0  0  0  0  0  0  0  0
   -4.4839   -0.3102    0.3560 C   0  0  1  0  0  0  0  0  0  0  0  0
   -4.7211   -1.6399    1.1115 C   0  0  0  0  0  0  0  0  0  0  0  0
   -2.9439    0.0258    0.2512 C   0  0  1  0  0  0  0  0  0  0  0  0
   -2.2048    0.0761    1.6154 C   0  0  0  0  0  0  0  0  0  0  0  0
   -0.6879    0.3115    1.4977 C   0  0  0  0  0  0  0  0  0  0  0  0
   -0.0140   -0.7110    0.5667 C   0  0  2  0  0  0  0  0  0  0  0  0
   -0.0862   -2.1267    1.1874 C   0  0  0  0  0  0  0  0  0  0  0  0
    8.2794   -0.7225    0.4328 H   0  0  0  0  0  0  0  0  0  0  0  0
    7.7315   -0.5250   -1.2388 H   0  0  0  0  0  0  0  0  0  0  0  0
    6.6614   -1.2493   -0.0324 H   0  0  0  0  0  0  0  0  0  0  0  0
    6.6237    0.9476    1.2232 H   0  0  0  0  0  0  0  0  0  0  0  0
    8.2263    2.0453   -1.1464 H   0  0  0  0  0  0  0  0  0  0  0  0
    8.9089    1.6607    0.4514 H   0  0  0  0  0  0  0  0  0  0  0  0
    8.3208    3.8384    0.2464 H   0  0  0  0  0  0  0  0  0  0  0  0
    5.6135    0.6939   -1.6089 H   0  0  0  0  0  0  0  0  0  0  0  0
    5.6449    2.3202   -0.9649 H   0  0  0  0  0  0  0  0  0  0  0  0
    4.2828    1.6717    0.9694 H   0  0  0  0  0  0  0  0  0  0  0  0
    3.4960    1.4195   -0.5820 H   0  0  0  0  0  0  0  0  0  0  0  0
    4.7749   -0.7497    1.1570 H   0  0  0  0  0  0  0  0  0  0  0  0
    4.1380   -1.0432   -0.4462 H   0  0  0  0  0  0  0  0  0  0  0  0
    2.6084   -1.7532    1.3094 H   0  0  0  0  0  0  0  0  0  0  0  0
    1.7287   -0.3665    3.0407 H   0  0  0  0  0  0  0  0  0  0  0  0
    2.2929    1.1269    2.2669 H   0  0  0  0  0  0  0  0  0  0  0  0
    3.4432   -0.0130    2.9869 H   0  0  0  0  0  0  0  0  0  0  0  0
    1.4665    0.7056   -0.1041 H   0  0  0  0  0  0  0  0  0  0  0  0
    2.0985   -2.0827   -1.1206 H   0  0  0  0  0  0  0  0  0  0  0  0
    2.1444   -0.5238   -1.9519 H   0  0  0  0  0  0  0  0  0  0  0  0
    0.0420   -1.0581   -2.7885 H   0  0  0  0  0  0  0  0  0  0  0  0
   -0.0773   -2.4561   -1.7143 H   0  0  0  0  0  0  0  0  0  0  0  0
   -0.6619    0.4595   -1.1298 H   0  0  0  0  0  0  0  0  0  0  0  0
   -2.3407   -1.9658   -0.4087 H   0  0  0  0  0  0  0  0  0  0  0  0
   -2.4382    0.0122   -2.6981 H   0  0  0  0  0  0  0  0  0  0  0  0
   -2.5877   -1.7414   -2.7205 H   0  0  0  0  0  0  0  0  0  0  0  0
   -4.8189   -0.7416   -3.1245 H   0  0  0  0  0  0  0  0  0  0  0  0
   -6.9326   -0.3502   -2.1788 H   0  0  0  0  0  0  0  0  0  0  0  0
   -7.1135   -0.8747   -0.5287 H   0  0  0  0  0  0  0  0  0  0  0  0
   -6.9408    1.9059   -1.6673 H   0  0  0  0  0  0  0  0  0  0  0  0
   -8.3710    2.2365    0.0487 H   0  0  0  0  0  0  0  0  0  0  0  0
   -5.0143    2.3330   -0.3913 H   0  0  0  0  0  0  0  0  0  0  0  0
   -6.2798    2.6858    0.7873 H   0  0  0  0  0  0  0  0  0  0  0  0
   -6.0905    0.3825    1.6900 H   0  0  0  0  0  0  0  0  0  0  0  0
   -4.6223    1.3030    1.8656 H   0  0  0  0  0  0  0  0  0  0  0  0
   -5.7819   -1.9181    1.1116 H   0  0  0  0  0  0  0  0  0  0  0  0
   -4.1777   -2.4765    0.6620 H   0  0  0  0  0  0  0  0  0  0  0  0
   -4.4220   -1.5662    2.1620 H   0  0  0  0  0  0  0  0  0  0  0  0
   -2.8645    1.0406   -0.1700 H   0  0  0  0  0  0  0  0  0  0  0  0
   -2.3685   -0.8498    2.1745 H   0  0  0  0  0  0  0  0  0  0  0  0
   -2.6115    0.8806    2.2362 H   0  0  0  0  0  0  0  0  0  0  0  0
   -0.5178    1.3301    1.1255 H   0  0  0  0  0  0  0  0  0  0  0  0
   -0.2595    0.2756    2.5031 H   0  0  0  0  0  0  0  0  0  0  0  0
   -1.1121   -2.4800    1.3195 H   0  0  0  0  0  0  0  0  0  0  0  0
    0.4289   -2.8762    0.5783 H   0  0  0  0  0  0  0  0  0  0  0  0
    0.3791   -2.1414    2.1787 H   0  0  0  0  0  0  0  0  0  0  0  0
  1  2  1  0
  2  3  1  0
  3  4  1  0
  2  5  1  0
  5  6  1  0
  6  7  1  0
  7  8  1  0
  8  9  1  0
  8 10  1  0
 10 11  1  0
 11 12  1  0
 12 13  1  0
 13 14  1  0
 14 15  1  0
 15 16  1  0
 16 17  2  0
 17 18  1  0
 18 19  1  0
 19 20  1  0
 19 21  1  0
 21 22  1  0
 22 23  1  0
 23 24  1  1
 23 25  1  0
 25 26  1  0
 26 27  1  0
 27 28  1  0
 28 29  1  1
 28 10  1  0
 28 13  1  0
 25 14  1  0
 23 17  1  0
  1 30  1  0
  1 31  1  0
  1 32  1  0
  2 33  1  0
  3 34  1  0
  3 35  1  0
  4 36  1  0
  5 37  1  0
  5 38  1  0
  6 39  1  0
  6 40  1  0
  7 41  1  0
  7 42  1  0
  8 43  1  1
  9 44  1  0
  9 45  1  0
  9 46  1  0
 10 47  1  6
 11 48  1  0
 11 49  1  0
 12 50  1  0
 12 51  1  0
 13 52  1  6
 14 53  1  1
 15 54  1  0
 15 55  1  0
 16 56  1  0
 18 57  1  0
 18 58  1  0
 19 59  1  6
 20 60  1  0
 21 61  1  0
 21 62  1  0
 22 63  1  0
 22 64  1  0
 24 65  1  0
 24 66  1  0
 24 67  1  0
 25 68  1  6
 26 69  1  0
 26 70  1  0
 27 71  1  0
 27 72  1  0
 29 73  1  0
 29 74  1  0
 29 75  1  0
M  END
>  <QED>  (92) 
0.507

>  <MW>  (92) 
402.7

$$$$
CHEMBL3598073
     RDKit          3D

 64 69  0  0  0  0  0  0  0  0999 V2000
   -3.5249   -1.2457    1.3117 H   0  0  0  0  0  0  0  0  0  0  0  0
   -2.8628   -0.6646    1.9583 C   0  0  0  0  0  0  0  0  0  0  0  0
   -2.0232   -1.2747    2.3046 H   0  0  0  0  0  0  0  0  0  0  0  0
   -3.4267   -0.3737    2.8498 H   0  0  0  0  0  0  0  0  0  0  0  0
   -2.4095    0.5329    1.2478 N   0  0  0  0  0  0  0  0  0  0  0  0
   -3.2295    1.6548    1.0684 C   0  0  0  0  0  0  0  0  0  0  0  0
   -2.9362    2.6833    0.4615 O   0  0  0  0  0  0  0  0  0  0  0  0
   -4.5911    1.6090    1.6132 C   0  0  0  0  0  0  0  0  0  0  0  0
   -5.5881    0.9862    0.8654 C   0  0  0  0  0  0  0  0  0  0  0  0
   -5.3005    0.3930   -0.3022 F   0  0  0  0  0  0  0  0  0  0  0  0
   -6.9024    0.9524    1.3242 C   0  0  0  0  0  0  0  0  0  0  0  0
   -7.2260    1.5557    2.5391 C   0  0  0  0  0  0  0  0  0  0  0  0
   -6.2311    2.1893    3.2892 C   0  0  0  0  0  0  0  0  0  0  0  0
   -4.9109    2.2216    2.8260 C   0  0  0  0  0  0  0  0  0  0  0  0
   -3.7232    2.9985    3.8081 Cl  0  0  0  0  0  0  0  0  0  0  0  0
   -1.0578    0.5290    0.7510 C   0  0  0  0  0  0  0  0  0  0  0  0
   -0.2777    1.6844    0.9391 C   0  0  0  0  0  0  0  0  0  0  0  0
    1.0689    1.7161    0.5811 C   0  0  0  0  0  0  0  0  0  0  0  0
    1.6641    0.5917    0.0180 C   0  0  0  0  0  0  0  0  0  0  0  0
    3.0668    0.6099   -0.3782 C   0  0  0  0  0  0  0  0  0  0  0  0
    4.1194   -0.1623    0.0761 C   0  0  0  0  0  0  0  0  0  0  0  0
    5.2572    0.2865   -0.6216 C   0  0  0  0  0  0  0  0  0  0  0  0
    6.5634   -0.1275   -0.5351 N   0  0  0  0  0  0  0  0  0  0  0  0
    7.0273   -1.1363    0.2736 C   0  0  0  0  0  0  0  0  0  0  0  0
    8.5136   -1.3564    0.1476 C   0  0  0  0  0  0  0  0  0  0  0  0
    6.3507   -1.8342    1.0230 O   0  0  0  0  0  0  0  0  0  0  0  0
    4.9549    1.2677   -1.4717 N   0  0  0  0  0  0  0  0  0  0  0  0
    3.6171    1.4076   -1.3602 N   0  0  0  0  0  0  0  0  0  0  0  0
    2.8745    2.3992   -2.1558 C   0  0  0  0  0  0  0  0  0  0  0  0
    1.7598    1.7934   -3.0132 C   0  0  0  0  0  0  0  0  0  0  0  0
    2.2539    2.4870   -4.1902 O   0  0  0  0  0  0  0  0  0  0  0  0
    3.5159    2.7255   -3.5083 C   0  0  0  0  0  0  0  0  0  0  0  0
    0.8968   -0.5658   -0.1785 C   0  0  0  0  0  0  0  0  0  0  0  0
   -0.4711   -0.6249    0.1543 C   0  0  0  0  0  0  0  0  0  0  0  0
   -1.2503   -1.7386   -0.1868 N   0  0  0  0  0  0  0  0  0  0  0  0
   -0.6940   -3.0990   -0.2380 C   0  0  0  0  0  0  0  0  0  0  0  0
   -1.6840   -3.8688   -1.0665 C   0  0  0  0  0  0  0  0  0  0  0  0
   -3.1618   -3.8789   -0.7600 C   0  0  0  0  0  0  0  0  0  0  0  0
   -2.5808   -2.8889   -1.7410 C   0  0  0  0  0  0  0  0  0  0  0  0
   -2.1657   -1.5064   -1.3248 C   0  0  0  0  0  0  0  0  0  0  0  0
   -7.6660    0.4601    0.7286 H   0  0  0  0  0  0  0  0  0  0  0  0
   -8.2517    1.5367    2.9012 H   0  0  0  0  0  0  0  0  0  0  0  0
   -6.4922    2.6598    4.2350 H   0  0  0  0  0  0  0  0  0  0  0  0
   -0.7024    2.5673    1.4119 H   0  0  0  0  0  0  0  0  0  0  0  0
    1.6418    2.6211    0.7679 H   0  0  0  0  0  0  0  0  0  0  0  0
    4.0653   -0.9296    0.8366 H   0  0  0  0  0  0  0  0  0  0  0  0
    7.1857    0.3788   -1.1486 H   0  0  0  0  0  0  0  0  0  0  0  0
    9.0119   -0.5053   -0.3251 H   0  0  0  0  0  0  0  0  0  0  0  0
    8.6926   -2.2528   -0.4519 H   0  0  0  0  0  0  0  0  0  0  0  0
    8.9413   -1.4886    1.1455 H   0  0  0  0  0  0  0  0  0  0  0  0
    2.5837    3.2858   -1.5827 H   0  0  0  0  0  0  0  0  0  0  0  0
    1.7753    0.7098   -3.1708 H   0  0  0  0  0  0  0  0  0  0  0  0
    0.7467    2.1133   -2.7532 H   0  0  0  0  0  0  0  0  0  0  0  0
    4.2872    2.0511   -3.8937 H   0  0  0  0  0  0  0  0  0  0  0  0
    3.8466    3.7617   -3.6239 H   0  0  0  0  0  0  0  0  0  0  0  0
    1.3810   -1.4128   -0.6543 H   0  0  0  0  0  0  0  0  0  0  0  0
    0.2767   -3.1504   -0.7381 H   0  0  0  0  0  0  0  0  0  0  0  0
   -0.6078   -3.5196    0.7686 H   0  0  0  0  0  0  0  0  0  0  0  0
   -1.2552   -4.6860   -1.6266 H   0  0  0  0  0  0  0  0  0  0  0  0
   -3.7557   -4.6938   -1.1565 H   0  0  0  0  0  0  0  0  0  0  0  0
   -3.4902   -3.5184    0.2076 H   0  0  0  0  0  0  0  0  0  0  0  0
   -2.8053   -2.9892   -2.7919 H   0  0  0  0  0  0  0  0  0  0  0  0
   -1.6453   -1.0149   -2.1559 H   0  0  0  0  0  0  0  0  0  0  0  0
   -3.0390   -0.9124   -1.0418 H   0  0  0  0  0  0  0  0  0  0  0  0
  1  2  1  0
  2  3  1  0
  2  4  1  0
  2  5  1  0
  5  6  1  0
  6  7  2  0
  6  8  1  0
  8  9  2  0
  9 10  1  0
  9 11  1  0
 11 12  2  0
 12 13  1  0
 13 14  2  0
 14 15  1  0
  5 16  1  0
 16 17  1  0
 17 18  2  0
 18 19  1  0
 19 20  1  0
 20 21  2  0
 21 22  1  0
 22 23  1  0
 23 24  1  0
 24 25  1  0
 24 26  2  0
 22 27  2  0
 27 28  1  0
 28 29  1  0
 29 30  1  0
 30 31  1  0
 31 32  1  0
 19 33  2  0
 33 34  1  0
 34 35  1  0
 35 36  1  0
 36 37  1  0
 37 38  1  0
 38 39  1  0
 39 40  1  0
 14  8  1  0
 34 16  2  0
 40 35  1  0
 28 20  1  0
 32 29  1  0
 39 37  1  0
 11 41  1  0
 12 42  1  0
 13 43  1  0
 17 44  1  0
 18 45  1  0
 21 46  1  0
 23 47  1  0
 25 48  1  0
 25 49  1  0
 25 50  1  0
 29 51  1  0
 30 52  1  0
 30 53  1  0
 32 54  1  0
 32 55  1  0
 33 56  1  0
 36 57  1  0
 36 58  1  0
 37 59  1  0
 38 60  1  0
 38 61  1  0
 39 62  1  0
 40 63  1  0
 40 64  1  0
M  ISO  3   1   2   3   2   4   2
M  END
>  <QED>  (93) 
0.507

>  <MW>  (93) 
527.0

$$$$
CHEMBL3317824
     RDKit          3D

 68 70  0  0  0  0  0  0  0  0999 V2000
   -4.6211    4.0084    0.9378 C   0  0  0  0  0  0  0  0  0  0  0  0
   -4.4430    4.0016   -0.5803 C   0  0  0  0  0  0  0  0  0  0  0  0
   -4.2585    5.4413   -1.0737 C   0  0  0  0  0  0  0  0  0  0  0  0
   -3.2483    3.1488   -1.0504 C   0  0  0  0  0  0  0  0  0  0  0  0
   -3.3705    1.6821   -0.8104 N   0  0  0  0  0  0  0  0  0  0  0  0
   -2.7816    1.2187    0.4667 C   0  0  0  0  0  0  0  0  0  0  0  0
   -1.3572    0.7150    0.3527 C   0  0  0  0  0  0  0  0  0  0  0  0
   -0.5808    0.8614   -0.7990 C   0  0  0  0  0  0  0  0  0  0  0  0
    0.7335    0.3728   -0.8468 C   0  0  0  0  0  0  0  0  0  0  0  0
    1.3319   -0.2760    0.2436 C   0  0  0  0  0  0  0  0  0  0  0  0
    2.6277   -0.7608    0.1881 N   0  0  0  0  0  0  0  0  0  0  0  0
    3.5891   -0.2868   -0.8204 C   0  0  0  0  0  0  0  0  0  0  0  0
    5.0400   -0.4302   -0.3010 C   0  0  0  0  0  0  0  0  0  0  0  0
    5.4396   -1.8173    0.0487 N   0  0  0  0  0  0  0  0  0  0  0  0
    6.5037   -1.8073    1.0863 C   0  0  0  0  0  0  0  0  0  0  0  0
    8.1192   -1.0783    0.6794 S   0  0  0  0  0  0  0  0  0  0  0  0
    8.5602   -1.8850   -0.8404 C   0  0  0  0  0  0  0  0  0  0  0  0
    9.0688   -1.5094    1.6903 O   0  0  0  0  0  0  0  0  0  0  0  0
    7.9464    0.3359    0.3987 O   0  0  0  0  0  0  0  0  0  0  0  0
    4.2678   -2.6027    0.4987 C   0  0  0  0  0  0  0  0  0  0  0  0
    3.1054   -1.7922    1.1198 C   0  0  0  0  0  0  0  0  0  0  0  0
    0.5408   -0.4038    1.3946 C   0  0  0  0  0  0  0  0  0  0  0  0
   -0.7729    0.0825    1.4548 C   0  0  0  0  0  0  0  0  0  0  0  0
   -4.7463    0.9009   -1.3956 S   0  0  0  0  0  0  0  0  0  0  0  0
   -5.1151    1.5831   -2.6239 O   0  0  0  0  0  0  0  0  0  0  0  0
   -5.7052    0.8157   -0.3139 O   0  0  0  0  0  0  0  0  0  0  0  0
   -4.1853   -0.7366   -1.9032 C   0  0  0  0  0  0  0  0  0  0  0  0
   -3.9505   -1.6988   -0.7689 C   0  0  0  0  0  0  0  0  0  0  0  0
   -4.9944   -2.1232    0.0661 C   0  0  0  0  0  0  0  0  0  0  0  0
   -4.7607   -3.0425    1.0911 C   0  0  0  0  0  0  0  0  0  0  0  0
   -3.4852   -3.5668    1.2831 C   0  0  0  0  0  0  0  0  0  0  0  0
   -2.4449   -3.1795    0.4436 C   0  0  0  0  0  0  0  0  0  0  0  0
   -2.6782   -2.2606   -0.5813 C   0  0  0  0  0  0  0  0  0  0  0  0
   -4.8869    3.0157    1.3119 H   0  0  0  0  0  0  0  0  0  0  0  0
   -5.4294    4.6877    1.2303 H   0  0  0  0  0  0  0  0  0  0  0  0
   -3.7078    4.3371    1.4448 H   0  0  0  0  0  0  0  0  0  0  0  0
   -5.3726    3.6292   -1.0233 H   0  0  0  0  0  0  0  0  0  0  0  0
   -3.3517    5.8919   -0.6558 H   0  0  0  0  0  0  0  0  0  0  0  0
   -5.1111    6.0651   -0.7845 H   0  0  0  0  0  0  0  0  0  0  0  0
   -4.1812    5.4715   -2.1658 H   0  0  0  0  0  0  0  0  0  0  0  0
   -3.0984    3.2842   -2.1295 H   0  0  0  0  0  0  0  0  0  0  0  0
   -2.3258    3.5180   -0.5837 H   0  0  0  0  0  0  0  0  0  0  0  0
   -2.7772    2.0355    1.1965 H   0  0  0  0  0  0  0  0  0  0  0  0
   -3.3981    0.4303    0.9092 H   0  0  0  0  0  0  0  0  0  0  0  0
   -0.9837    1.3473   -1.6841 H   0  0  0  0  0  0  0  0  0  0  0  0
    1.2749    0.4956   -1.7809 H   0  0  0  0  0  0  0  0  0  0  0  0
    3.4624   -0.8569   -1.7487 H   0  0  0  0  0  0  0  0  0  0  0  0
    3.4293    0.7745   -1.0457 H   0  0  0  0  0  0  0  0  0  0  0  0
    5.1353    0.2263    0.5748 H   0  0  0  0  0  0  0  0  0  0  0  0
    5.7215   -0.0532   -1.0714 H   0  0  0  0  0  0  0  0  0  0  0  0
    6.7489   -2.8438    1.3509 H   0  0  0  0  0  0  0  0  0  0  0  0
    6.1645   -1.3049    2.0004 H   0  0  0  0  0  0  0  0  0  0  0  0
    8.5684   -2.9641   -0.6766 H   0  0  0  0  0  0  0  0  0  0  0  0
    7.8394   -1.6142   -1.6133 H   0  0  0  0  0  0  0  0  0  0  0  0
    9.5571   -1.5442   -1.1280 H   0  0  0  0  0  0  0  0  0  0  0  0
    4.5659   -3.4021    1.1883 H   0  0  0  0  0  0  0  0  0  0  0  0
    3.8784   -3.1185   -0.3895 H   0  0  0  0  0  0  0  0  0  0  0  0
    3.4346   -1.3214    2.0538 H   0  0  0  0  0  0  0  0  0  0  0  0
    2.3047   -2.5030    1.3575 H   0  0  0  0  0  0  0  0  0  0  0  0
    0.9403   -0.8705    2.2905 H   0  0  0  0  0  0  0  0  0  0  0  0
   -1.3385   -0.0474    2.3756 H   0  0  0  0  0  0  0  0  0  0  0  0
   -3.2898   -0.5882   -2.5163 H   0  0  0  0  0  0  0  0  0  0  0  0
   -4.9632   -1.1429   -2.5601 H   0  0  0  0  0  0  0  0  0  0  0  0
   -6.0051   -1.7400   -0.0679 H   0  0  0  0  0  0  0  0  0  0  0  0
   -5.5790   -3.3510    1.7371 H   0  0  0  0  0  0  0  0  0  0  0  0
   -3.3052   -4.2826    2.0805 H   0  0  0  0  0  0  0  0  0  0  0  0
   -1.4484   -3.5906    0.5835 H   0  0  0  0  0  0  0  0  0  0  0  0
   -1.8471   -1.9807   -1.2268 H   0  0  0  0  0  0  0  0  0  0  0  0
  1  2  1  0
  2  3  1  0
  2  4  1  0
  4  5  1  0
  5  6  1  0
  6  7  1  0
  7  8  1  0
  8  9  2  0
  9 10  1  0
 10 11  1  0
 11 12  1  0
 12 13  1  0
 13 14  1  0
 14 15  1  0
 15 16  1  0
 16 17  1  0
 16 18  2  0
 16 19  2  0
 14 20  1  0
 20 21  1  0
 10 22  2  0
 22 23  1  0
  5 24  1  0
 24 25  2  0
 24 26  2  0
 24 27  1  0
 27 28  1  0
 28 29  2  0
 29 30  1  0
 30 31  2  0
 31 32  1  0
 32 33  2  0
 23  7  2  0
 33 28  1  0
 21 11  1  0
  1 34  1  0
  1 35  1  0
  1 36  1  0
  2 37  1  0
  3 38  1  0
  3 39  1  0
  3 40  1  0
  4 41  1  0
  4 42  1  0
  6 43  1  0
  6 44  1  0
  8 45  1  0
  9 46  1  0
 12 47  1  0
 12 48  1  0
 13 49  1  0
 13 50  1  0
 15 51  1  0
 15 52  1  0
 17 53  1  0
 17 54  1  0
 17 55  1  0
 20 56  1  0
 20 57  1  0
 21 58  1  0
 21 59  1  0
 22 60  1  0
 23 61  1  0
 27 62  1  0
 27 63  1  0
 29 64  1  0
 30 65  1  0
 31 66  1  0
 32 67  1  0
 33 68  1  0
M  END
>  <QED>  (94) 
0.507

>  <MW>  (94) 
493.7

$$$$
CHEMBL3314036
     RDKit          3D

 67 69  0  0  0  0  0  0  0  0999 V2000
   -1.3557    1.9532    0.6008 C   0  0  0  0  0  0  0  0  0  0  0  0
   -2.8591    1.9383    0.3278 C   0  0  0  0  0  0  0  0  0  0  0  0
   -3.3990    3.3710    0.3492 C   0  0  0  0  0  0  0  0  0  0  0  0
   -3.2135    1.2735   -1.0151 C   0  0  0  0  0  0  0  0  0  0  0  0
   -2.9010   -0.1938   -1.0061 N   0  0  0  0  0  0  0  0  0  0  0  0
   -2.0817   -0.5872   -2.2029 C   0  0  0  0  0  0  0  0  0  0  0  0
   -0.6118   -0.2807   -2.0331 C   0  0  0  0  0  0  0  0  0  0  0  0
    0.0096    0.7274   -2.7773 C   0  0  0  0  0  0  0  0  0  0  0  0
    1.3682    0.9977   -2.5965 C   0  0  0  0  0  0  0  0  0  0  0  0
    2.1297    0.2694   -1.6786 C   0  0  0  0  0  0  0  0  0  0  0  0
    3.4390    0.6514   -1.6076 O   0  0  0  0  0  0  0  0  0  0  0  0
    4.3311   -0.0521   -0.7384 C   0  0  0  0  0  0  0  0  0  0  0  0
    5.7433    0.1311   -1.3011 C   0  0  0  0  0  0  0  0  0  0  0  0
    6.7918   -0.4842   -0.3853 C   0  0  0  0  0  0  0  0  0  0  0  0
    6.6677    0.0115    1.0081 N   0  0  0  0  0  0  0  0  0  0  0  0
    7.5049    1.4287    1.4308 S   0  0  0  0  0  0  0  0  0  0  0  0
    9.1894    0.8521    1.4633 C   0  0  0  0  0  0  0  0  0  0  0  0
    7.1469    1.7772    2.7893 O   0  0  0  0  0  0  0  0  0  0  0  0
    7.3637    2.3793    0.3508 O   0  0  0  0  0  0  0  0  0  0  0  0
    5.3017   -0.1493    1.5647 C   0  0  0  0  0  0  0  0  0  0  0  0
    4.2687    0.5247    0.6773 C   0  0  0  0  0  0  0  0  0  0  0  0
    1.5157   -0.7387   -0.9383 C   0  0  0  0  0  0  0  0  0  0  0  0
    0.1549   -1.0126   -1.1159 C   0  0  0  0  0  0  0  0  0  0  0  0
   -4.2501   -1.2505   -0.8329 S   0  0  0  0  0  0  0  0  0  0  0  0
   -3.7060   -2.5912   -0.7403 O   0  0  0  0  0  0  0  0  0  0  0  0
   -5.1819   -0.8934   -1.8841 O   0  0  0  0  0  0  0  0  0  0  0  0
   -4.9267   -0.7858    0.7690 C   0  0  0  0  0  0  0  0  0  0  0  0
   -6.0765   -1.6999    1.1077 C   0  0  0  0  0  0  0  0  0  0  0  0
   -7.3776   -1.3980    0.6796 C   0  0  0  0  0  0  0  0  0  0  0  0
   -8.4405   -2.2463    0.9931 C   0  0  0  0  0  0  0  0  0  0  0  0
   -8.2149   -3.4043    1.7343 C   0  0  0  0  0  0  0  0  0  0  0  0
   -6.9257   -3.7178    2.1595 C   0  0  0  0  0  0  0  0  0  0  0  0
   -5.8608   -2.8715    1.8476 C   0  0  0  0  0  0  0  0  0  0  0  0
   -0.8055    2.4371   -0.2124 H   0  0  0  0  0  0  0  0  0  0  0  0
   -1.1346    2.4983    1.5251 H   0  0  0  0  0  0  0  0  0  0  0  0
   -0.9717    0.9379    0.7287 H   0  0  0  0  0  0  0  0  0  0  0  0
   -3.3339    1.3946    1.1503 H   0  0  0  0  0  0  0  0  0  0  0  0
   -4.4851    3.3795    0.2085 H   0  0  0  0  0  0  0  0  0  0  0  0
   -2.9483    3.9775   -0.4438 H   0  0  0  0  0  0  0  0  0  0  0  0
   -3.1851    3.8542    1.3085 H   0  0  0  0  0  0  0  0  0  0  0  0
   -2.6783    1.7838   -1.8248 H   0  0  0  0  0  0  0  0  0  0  0  0
   -4.2773    1.4240   -1.2329 H   0  0  0  0  0  0  0  0  0  0  0  0
   -2.4787   -0.0961   -3.1008 H   0  0  0  0  0  0  0  0  0  0  0  0
   -2.1521   -1.6632   -2.4008 H   0  0  0  0  0  0  0  0  0  0  0  0
   -0.5543    1.3128   -3.4993 H   0  0  0  0  0  0  0  0  0  0  0  0
    1.8404    1.7871   -3.1771 H   0  0  0  0  0  0  0  0  0  0  0  0
    4.1187   -1.1285   -0.7407 H   0  0  0  0  0  0  0  0  0  0  0  0
    5.9417    1.1980   -1.4589 H   0  0  0  0  0  0  0  0  0  0  0  0
    5.8044   -0.3258   -2.2966 H   0  0  0  0  0  0  0  0  0  0  0  0
    6.6801   -1.5754   -0.3660 H   0  0  0  0  0  0  0  0  0  0  0  0
    7.7938   -0.2912   -0.7798 H   0  0  0  0  0  0  0  0  0  0  0  0
    9.2633    0.0163    2.1616 H   0  0  0  0  0  0  0  0  0  0  0  0
    9.8168    1.6769    1.8093 H   0  0  0  0  0  0  0  0  0  0  0  0
    9.4975    0.5569    0.4601 H   0  0  0  0  0  0  0  0  0  0  0  0
    5.2413    0.2382    2.5861 H   0  0  0  0  0  0  0  0  0  0  0  0
    5.0905   -1.2232    1.6439 H   0  0  0  0  0  0  0  0  0  0  0  0
    4.4333    1.6093    0.6454 H   0  0  0  0  0  0  0  0  0  0  0  0
    3.2695    0.3884    1.1050 H   0  0  0  0  0  0  0  0  0  0  0  0
    2.0544   -1.3292   -0.2066 H   0  0  0  0  0  0  0  0  0  0  0  0
   -0.3151   -1.7977   -0.5251 H   0  0  0  0  0  0  0  0  0  0  0  0
   -4.1284   -0.8700    1.5124 H   0  0  0  0  0  0  0  0  0  0  0  0
   -5.2741    0.2491    0.7167 H   0  0  0  0  0  0  0  0  0  0  0  0
   -7.5734   -0.5055    0.0881 H   0  0  0  0  0  0  0  0  0  0  0  0
   -9.4446   -2.0073    0.6521 H   0  0  0  0  0  0  0  0  0  0  0  0
   -9.0424   -4.0671    1.9731 H   0  0  0  0  0  0  0  0  0  0  0  0
   -6.7476   -4.6270    2.7281 H   0  0  0  0  0  0  0  0  0  0  0  0
   -4.8589   -3.1418    2.1764 H   0  0  0  0  0  0  0  0  0  0  0  0
  1  2  1  0
  2  3  1  0
  2  4  1  0
  4  5  1  0
  5  6  1  0
  6  7  1  0
  7  8  1  0
  8  9  2  0
  9 10  1  0
 10 11  1  0
 11 12  1  0
 12 13  1  0
 13 14  1  0
 14 15  1  0
 15 16  1  0
 16 17  1  0
 16 18  2  0
 16 19  2  0
 15 20  1  0
 20 21  1  0
 10 22  2  0
 22 23  1  0
  5 24  1  0
 24 25  2  0
 24 26  2  0
 24 27  1  0
 27 28  1  0
 28 29  2  0
 29 30  1  0
 30 31  2  0
 31 32  1  0
 32 33  2  0
 23  7  2  0
 33 28  1  0
 21 12  1  0
  1 34  1  0
  1 35  1  0
  1 36  1  0
  2 37  1  0
  3 38  1  0
  3 39  1  0
  3 40  1  0
  4 41  1  0
  4 42  1  0
  6 43  1  0
  6 44  1  0
  8 45  1  0
  9 46  1  0
 12 47  1  0
 13 48  1  0
 13 49  1  0
 14 50  1  0
 14 51  1  0
 17 52  1  0
 17 53  1  0
 17 54  1  0
 20 55  1  0
 20 56  1  0
 21 57  1  0
 21 58  1  0
 22 59  1  0
 23 60  1  0
 27 61  1  0
 27 62  1  0
 29 63  1  0
 30 64  1  0
 31 65  1  0
 32 66  1  0
 33 67  1  0
M  END
>  <QED>  (95) 
0.505

>  <MW>  (95) 
494.7

$$$$
CHEMBL3361050
     RDKit          3D

 68 70  0  0  0  0  0  0  0  0999 V2000
   -2.8679   -0.6259    3.7890 C   0  0  0  0  0  0  0  0  0  0  0  0
   -3.3875    0.3221    2.7049 C   0  0  0  0  0  0  0  0  0  0  0  0
   -4.9026    0.1687    2.5738 C   0  0  0  0  0  0  0  0  0  0  0  0
   -2.6557    0.0433    1.3806 C   0  0  0  0  0  0  0  0  0  0  0  0
   -2.9392    1.0929    0.3606 N   0  0  0  0  0  0  0  0  0  0  0  0
   -3.2976    0.5663   -0.9780 C   0  0  0  0  0  0  0  0  0  0  0  0
   -4.6929   -0.0309   -1.0341 C   0  0  0  0  0  0  0  0  0  0  0  0
   -4.8286   -1.4320   -1.0824 C   0  0  0  0  0  0  0  0  0  0  0  0
   -6.0866   -2.0325   -1.1082 C   0  0  0  0  0  0  0  0  0  0  0  0
   -7.2314   -1.2456   -1.0873 C   0  0  0  0  0  0  0  0  0  0  0  0
   -7.1187    0.1436   -1.0474 C   0  0  0  0  0  0  0  0  0  0  0  0
   -5.8580    0.7730   -1.0263 C   0  0  0  0  0  0  0  0  0  0  0  0
   -5.7971    2.2888   -1.0017 C   0  0  0  0  0  0  0  0  0  0  0  0
   -7.0229    2.8706   -1.1629 F   0  0  0  0  0  0  0  0  0  0  0  0
   -5.0313    2.7928   -2.0078 F   0  0  0  0  0  0  0  0  0  0  0  0
   -5.3096    2.7918    0.1610 F   0  0  0  0  0  0  0  0  0  0  0  0
   -1.8867    2.4454    0.3490 S   0  0  0  0  0  0  0  0  0  0  0  0
   -2.3980    3.4112   -0.5996 O   0  0  0  0  0  0  0  0  0  0  0  0
   -1.5978    2.8222    1.7162 O   0  0  0  0  0  0  0  0  0  0  0  0
   -0.3769    1.7930   -0.3437 C   0  0  0  0  0  0  0  0  0  0  0  0
    0.6299    1.3192    0.4956 C   0  0  0  0  0  0  0  0  0  0  0  0
    1.8220    0.8292   -0.0539 C   0  0  0  0  0  0  0  0  0  0  0  0
    2.0529    0.8424   -1.4327 C   0  0  0  0  0  0  0  0  0  0  0  0
    3.1754    0.3190   -2.0552 N   0  0  0  0  0  0  0  0  0  0  0  0
    4.4036   -0.1821   -1.4304 C   0  0  0  0  0  0  0  0  0  0  0  0
    4.1921   -1.5109   -0.7109 C   0  0  0  0  0  0  0  0  0  0  0  0
    5.5213   -2.0647   -0.2056 C   0  0  0  0  0  0  0  0  0  0  0  0
    6.4173   -1.0083    0.3519 N   0  0  0  0  0  0  0  0  0  0  0  0
    7.5048   -1.5292    1.5647 S   0  0  0  0  0  0  0  0  0  0  0  0
    8.5014   -2.7121    0.6808 C   0  0  0  0  0  0  0  0  0  0  0  0
    6.7337   -2.2239    2.5727 O   0  0  0  0  0  0  0  0  0  0  0  0
    8.3519   -0.4083    1.9101 O   0  0  0  0  0  0  0  0  0  0  0  0
    5.7174    0.2597    0.6857 C   0  0  0  0  0  0  0  0  0  0  0  0
    5.1339    0.8651   -0.5869 C   0  0  0  0  0  0  0  0  0  0  0  0
    1.0211    1.3336   -2.2525 C   0  0  0  0  0  0  0  0  0  0  0  0
   -0.1762    1.8244   -1.7218 C   0  0  0  0  0  0  0  0  0  0  0  0
   -3.3582   -0.4276    4.7480 H   0  0  0  0  0  0  0  0  0  0  0  0
   -3.0524   -1.6726    3.5239 H   0  0  0  0  0  0  0  0  0  0  0  0
   -1.7901   -0.4968    3.9344 H   0  0  0  0  0  0  0  0  0  0  0  0
   -3.1846    1.3463    3.0359 H   0  0  0  0  0  0  0  0  0  0  0  0
   -5.3157    0.9195    1.8962 H   0  0  0  0  0  0  0  0  0  0  0  0
   -5.3920    0.3059    3.5442 H   0  0  0  0  0  0  0  0  0  0  0  0
   -5.1736   -0.8236    2.1986 H   0  0  0  0  0  0  0  0  0  0  0  0
   -1.5776   -0.0196    1.5565 H   0  0  0  0  0  0  0  0  0  0  0  0
   -2.9381   -0.9481    1.0097 H   0  0  0  0  0  0  0  0  0  0  0  0
   -3.2391    1.3403   -1.7486 H   0  0  0  0  0  0  0  0  0  0  0  0
   -2.5581   -0.1896   -1.2737 H   0  0  0  0  0  0  0  0  0  0  0  0
   -3.9475   -2.0712   -1.0934 H   0  0  0  0  0  0  0  0  0  0  0  0
   -6.1728   -3.1159   -1.1411 H   0  0  0  0  0  0  0  0  0  0  0  0
   -8.2138   -1.7112   -1.1038 H   0  0  0  0  0  0  0  0  0  0  0  0
   -8.0296    0.7421   -1.0349 H   0  0  0  0  0  0  0  0  0  0  0  0
    0.5040    1.3279    1.5763 H   0  0  0  0  0  0  0  0  0  0  0  0
    2.5718    0.4648    0.6384 H   0  0  0  0  0  0  0  0  0  0  0  0
    3.3509    0.7549   -2.9590 H   0  0  0  0  0  0  0  0  0  0  0  0
    5.0707   -0.4106   -2.2746 H   0  0  0  0  0  0  0  0  0  0  0  0
    3.7226   -2.2419   -1.3808 H   0  0  0  0  0  0  0  0  0  0  0  0
    3.5089   -1.4050    0.1372 H   0  0  0  0  0  0  0  0  0  0  0  0
    6.0539   -2.5317   -1.0426 H   0  0  0  0  0  0  0  0  0  0  0  0
    5.3162   -2.8471    0.5321 H   0  0  0  0  0  0  0  0  0  0  0  0
    9.2870   -3.0570    1.3569 H   0  0  0  0  0  0  0  0  0  0  0  0
    8.9492   -2.2200   -0.1845 H   0  0  0  0  0  0  0  0  0  0  0  0
    7.8815   -3.5575    0.3792 H   0  0  0  0  0  0  0  0  0  0  0  0
    6.4124    0.9876    1.1167 H   0  0  0  0  0  0  0  0  0  0  0  0
    4.9339    0.0694    1.4282 H   0  0  0  0  0  0  0  0  0  0  0  0
    4.5001    1.7181   -0.3228 H   0  0  0  0  0  0  0  0  0  0  0  0
    5.9497    1.2856   -1.1905 H   0  0  0  0  0  0  0  0  0  0  0  0
    1.1479    1.3437   -3.3335 H   0  0  0  0  0  0  0  0  0  0  0  0
   -0.9330    2.2286   -2.3901 H   0  0  0  0  0  0  0  0  0  0  0  0
  1  2  1  0
  2  3  1  0
  2  4  1  0
  4  5  1  0
  5  6  1  0
  6  7  1  0
  7  8  2  0
  8  9  1  0
  9 10  2  0
 10 11  1  0
 11 12  2  0
 12 13  1  0
 13 14  1  0
 13 15  1  0
 13 16  1  0
  5 17  1  0
 17 18  2  0
 17 19  2  0
 17 20  1  0
 20 21  1  0
 21 22  2  0
 22 23  1  0
 23 24  1  0
 24 25  1  0
 25 26  1  0
 26 27  1  0
 27 28  1  0
 28 29  1  0
 29 30  1  0
 29 31  2  0
 29 32  2  0
 28 33  1  0
 33 34  1  0
 23 35  2  0
 35 36  1  0
 12  7  1  0
 36 20  2  0
 34 25  1  0
  1 37  1  0
  1 38  1  0
  1 39  1  0
  2 40  1  0
  3 41  1  0
  3 42  1  0
  3 43  1  0
  4 44  1  0
  4 45  1  0
  6 46  1  0
  6 47  1  0
  8 48  1  0
  9 49  1  0
 10 50  1  0
 11 51  1  0
 21 52  1  0
 22 53  1  0
 24 54  1  0
 25 55  1  0
 26 56  1  0
 26 57  1  0
 27 58  1  0
 27 59  1  0
 30 60  1  0
 30 61  1  0
 30 62  1  0
 33 63  1  0
 33 64  1  0
 34 65  1  0
 34 66  1  0
 35 67  1  0
 36 68  1  0
M  END
>  <QED>  (96) 
0.503

>  <MW>  (96) 
547.7

$$$$
CHEMBL3264012
     RDKit          3D

 62 64  0  0  0  0  0  0  0  0999 V2000
   -3.9919    2.2576    0.5099 C   0  0  0  0  0  0  0  0  0  0  0  0
   -4.5283    1.2510    1.5295 C   0  0  0  0  0  0  0  0  0  0  0  0
   -5.8282    1.7760    2.1413 C   0  0  0  0  0  0  0  0  0  0  0  0
   -3.5018    0.9702    2.6372 C   0  0  0  0  0  0  0  0  0  0  0  0
   -2.3223    0.2294    2.0908 N   0  0  0  0  0  0  0  0  0  0  0  0
   -1.0290    0.8256    2.5277 C   0  0  0  0  0  0  0  0  0  0  0  0
    0.1271    0.6045    1.5851 C   0  0  0  0  0  0  0  0  0  0  0  0
    1.1318   -0.3221    1.8868 C   0  0  0  0  0  0  0  0  0  0  0  0
    2.2012   -0.5219    1.0080 C   0  0  0  0  0  0  0  0  0  0  0  0
    2.2994    0.2011   -0.1911 C   0  0  0  0  0  0  0  0  0  0  0  0
    3.4224   -0.0132   -1.1182 C   0  0  0  0  0  0  0  0  0  0  0  0
    3.1949   -0.3280   -2.4672 C   0  0  0  0  0  0  0  0  0  0  0  0
    4.2588   -0.5267   -3.3493 C   0  0  0  0  0  0  0  0  0  0  0  0
    5.5715   -0.4149   -2.8971 C   0  0  0  0  0  0  0  0  0  0  0  0
    5.8323   -0.1065   -1.5568 C   0  0  0  0  0  0  0  0  0  0  0  0
    7.2562    0.0038   -1.0629 C   0  0  0  0  0  0  0  0  0  0  0  0
    8.0171   -1.3087   -1.0788 C   0  0  0  0  0  0  0  0  0  0  0  0
    7.4025   -2.3737   -0.4833 N   0  0  0  0  0  0  0  0  0  0  0  0
    9.1500   -1.4211   -1.5373 O   0  0  0  0  0  0  0  0  0  0  0  0
    4.7538    0.0934   -0.6794 C   0  0  0  0  0  0  0  0  0  0  0  0
    1.2930    1.1357   -0.4796 C   0  0  0  0  0  0  0  0  0  0  0  0
    0.2204    1.3354    0.3953 C   0  0  0  0  0  0  0  0  0  0  0  0
   -2.4360   -1.4746    2.1996 S   0  0  0  0  0  0  0  0  0  0  0  0
   -1.4749   -1.9134    3.1942 O   0  0  0  0  0  0  0  0  0  0  0  0
   -3.8321   -1.8330    2.3646 O   0  0  0  0  0  0  0  0  0  0  0  0
   -1.8872   -2.0768    0.5903 C   0  0  0  0  0  0  0  0  0  0  0  0
   -2.7536   -1.5817   -0.5401 C   0  0  0  0  0  0  0  0  0  0  0  0
   -2.2388   -0.6820   -1.4838 C   0  0  0  0  0  0  0  0  0  0  0  0
   -3.0247   -0.2323   -2.5466 C   0  0  0  0  0  0  0  0  0  0  0  0
   -4.3332   -0.6865   -2.6874 C   0  0  0  0  0  0  0  0  0  0  0  0
   -4.8523   -1.5977   -1.7716 C   0  0  0  0  0  0  0  0  0  0  0  0
   -4.0655   -2.0489   -0.7101 C   0  0  0  0  0  0  0  0  0  0  0  0
   -4.7326    2.4456   -0.2747 H   0  0  0  0  0  0  0  0  0  0  0  0
   -3.7527    3.2152    0.9847 H   0  0  0  0  0  0  0  0  0  0  0  0
   -3.0852    1.8868    0.0243 H   0  0  0  0  0  0  0  0  0  0  0  0
   -4.7626    0.3223    0.9991 H   0  0  0  0  0  0  0  0  0  0  0  0
   -6.5765    1.9628    1.3638 H   0  0  0  0  0  0  0  0  0  0  0  0
   -6.2501    1.0468    2.8411 H   0  0  0  0  0  0  0  0  0  0  0  0
   -5.6629    2.7124    2.6851 H   0  0  0  0  0  0  0  0  0  0  0  0
   -3.9516    0.4021    3.4605 H   0  0  0  0  0  0  0  0  0  0  0  0
   -3.1918    1.9203    3.0893 H   0  0  0  0  0  0  0  0  0  0  0  0
   -1.1409    1.9147    2.6184 H   0  0  0  0  0  0  0  0  0  0  0  0
   -0.7823    0.4914    3.5430 H   0  0  0  0  0  0  0  0  0  0  0  0
    1.0851   -0.9049    2.8060 H   0  0  0  0  0  0  0  0  0  0  0  0
    2.9571   -1.2615    1.2648 H   0  0  0  0  0  0  0  0  0  0  0  0
    2.1779   -0.4291   -2.8414 H   0  0  0  0  0  0  0  0  0  0  0  0
    4.0619   -0.7689   -4.3908 H   0  0  0  0  0  0  0  0  0  0  0  0
    6.3910   -0.5696   -3.5972 H   0  0  0  0  0  0  0  0  0  0  0  0
    7.2868    0.3954   -0.0392 H   0  0  0  0  0  0  0  0  0  0  0  0
    7.7906    0.7248   -1.6935 H   0  0  0  0  0  0  0  0  0  0  0  0
    6.3938   -2.3970   -0.4031 H   0  0  0  0  0  0  0  0  0  0  0  0
    7.8740   -3.2636   -0.5845 H   0  0  0  0  0  0  0  0  0  0  0  0
    4.9510    0.3515    0.3606 H   0  0  0  0  0  0  0  0  0  0  0  0
    1.3428    1.7270   -1.3922 H   0  0  0  0  0  0  0  0  0  0  0  0
   -0.5452    2.0655    0.1402 H   0  0  0  0  0  0  0  0  0  0  0  0
   -1.9294   -3.1710    0.6346 H   0  0  0  0  0  0  0  0  0  0  0  0
   -0.8399   -1.8029    0.4551 H   0  0  0  0  0  0  0  0  0  0  0  0
   -1.2153   -0.3270   -1.4040 H   0  0  0  0  0  0  0  0  0  0  0  0
   -2.6137    0.4705   -3.2664 H   0  0  0  0  0  0  0  0  0  0  0  0
   -4.9464   -0.3361   -3.5133 H   0  0  0  0  0  0  0  0  0  0  0  0
   -5.8715   -1.9594   -1.8812 H   0  0  0  0  0  0  0  0  0  0  0  0
   -4.4942   -2.7636   -0.0090 H   0  0  0  0  0  0  0  0  0  0  0  0
  1  2  1  0
  2  3  1  0
  2  4  1  0
  4  5  1  0
  5  6  1  0
  6  7  1  0
  7  8  1  0
  8  9  2  0
  9 10  1  0
 10 11  1  0
 11 12  1  0
 12 13  2  0
 13 14  1  0
 14 15  2  0
 15 16  1  0
 16 17  1  0
 17 18  1  0
 17 19  2  0
 15 20  1  0
 10 21  2  0
 21 22  1  0
  5 23  1  0
 23 24  2  0
 23 25  2  0
 23 26  1  0
 26 27  1  0
 27 28  2  0
 28 29  1  0
 29 30  2  0
 30 31  1  0
 31 32  2  0
 22  7  2  0
 32 27  1  0
 20 11  2  0
  1 33  1  0
  1 34  1  0
  1 35  1  0
  2 36  1  0
  3 37  1  0
  3 38  1  0
  3 39  1  0
  4 40  1  0
  4 41  1  0
  6 42  1  0
  6 43  1  0
  8 44  1  0
  9 45  1  0
 12 46  1  0
 13 47  1  0
 14 48  1  0
 16 49  1  0
 16 50  1  0
 18 51  1  0
 18 52  1  0
 20 53  1  0
 21 54  1  0
 22 55  1  0
 26 56  1  0
 26 57  1  0
 28 58  1  0
 29 59  1  0
 30 60  1  0
 31 61  1  0
 32 62  1  0
M  END
>  <QED>  (97) 
0.498

>  <MW>  (97) 
450.6

$$$$
CHEMBL3314009
     RDKit          3D

 44 47  0  0  0  0  0  0  0  0999 V2000
    7.6674    1.1071    0.5650 O   0  0  0  0  0  0  0  0  0  0  0  0
    6.6545    1.7811    0.5985 C   0  0  0  0  0  0  0  0  0  0  0  0
    6.7089    3.1210    0.6945 O   0  0  0  0  0  0  0  0  0  0  0  0
    5.2663    1.2632    0.5376 C   0  0  0  0  0  0  0  0  0  0  0  0
    4.1536    2.1099    0.5781 C   0  0  0  0  0  0  0  0  0  0  0  0
    2.8627    1.5734    0.5178 C   0  0  0  0  0  0  0  0  0  0  0  0
    2.6658    0.1884    0.4087 C   0  0  0  0  0  0  0  0  0  0  0  0
    1.3088   -0.3578    0.3466 C   0  0  0  0  0  0  0  0  0  0  0  0
    0.3289    0.1774    1.0858 N   0  0  0  0  0  0  0  0  0  0  0  0
   -0.7522   -0.6166    0.8552 N   0  0  0  0  0  0  0  0  0  0  0  0
   -2.3345   -0.2993    1.5068 S   0  0  0  0  0  0  0  0  0  0  0  0
   -2.1568    0.6419    2.5945 O   0  0  0  0  0  0  0  0  0  0  0  0
   -2.9282   -1.6078    1.6966 O   0  0  0  0  0  0  0  0  0  0  0  0
   -3.2170    0.5525    0.2124 C   0  0  0  0  0  0  0  0  0  0  0  0
   -2.4947    1.3687   -0.6741 C   0  0  0  0  0  0  0  0  0  0  0  0
   -3.1480    2.0192   -1.7199 C   0  0  0  0  0  0  0  0  0  0  0  0
   -4.5205    1.8696   -1.8823 C   0  0  0  0  0  0  0  0  0  0  0  0
   -5.2471    1.0845   -0.9865 C   0  0  0  0  0  0  0  0  0  0  0  0
   -4.6152    0.4254    0.0874 C   0  0  0  0  0  0  0  0  0  0  0  0
   -5.4694   -0.3805    1.0418 C   0  0  0  0  0  0  0  0  0  0  0  0
   -5.1328   -0.2147    2.3457 F   0  0  0  0  0  0  0  0  0  0  0  0
   -6.7899   -0.0373    0.9712 F   0  0  0  0  0  0  0  0  0  0  0  0
   -5.4340   -1.7118    0.7741 F   0  0  0  0  0  0  0  0  0  0  0  0
   -0.5338   -1.5659   -0.1292 C   0  0  0  0  0  0  0  0  0  0  0  0
   -1.3573   -2.5231   -0.7509 C   0  0  0  0  0  0  0  0  0  0  0  0
   -0.7926   -3.3392   -1.7351 C   0  0  0  0  0  0  0  0  0  0  0  0
    0.5434   -3.2074   -2.0948 C   0  0  0  0  0  0  0  0  0  0  0  0
    1.3551   -2.2537   -1.4737 C   0  0  0  0  0  0  0  0  0  0  0  0
    0.8131   -1.4213   -0.4708 C   0  0  0  0  0  0  0  0  0  0  0  0
    3.7852   -0.6543    0.3841 C   0  0  0  0  0  0  0  0  0  0  0  0
    5.0774   -0.1207    0.4438 C   0  0  0  0  0  0  0  0  0  0  0  0
    7.6688    3.3159    0.7318 H   0  0  0  0  0  0  0  0  0  0  0  0
    4.2760    3.1871    0.6626 H   0  0  0  0  0  0  0  0  0  0  0  0
    2.0078    2.2462    0.5619 H   0  0  0  0  0  0  0  0  0  0  0  0
   -1.4248    1.5319   -0.5634 H   0  0  0  0  0  0  0  0  0  0  0  0
   -2.5855    2.6493   -2.4060 H   0  0  0  0  0  0  0  0  0  0  0  0
   -5.0306    2.3769   -2.6987 H   0  0  0  0  0  0  0  0  0  0  0  0
   -6.3257    0.9981   -1.1244 H   0  0  0  0  0  0  0  0  0  0  0  0
   -2.4026   -2.6563   -0.4837 H   0  0  0  0  0  0  0  0  0  0  0  0
   -1.4096   -4.0911   -2.2243 H   0  0  0  0  0  0  0  0  0  0  0  0
    0.9615   -3.8502   -2.8666 H   0  0  0  0  0  0  0  0  0  0  0  0
    2.3930   -2.1546   -1.7804 H   0  0  0  0  0  0  0  0  0  0  0  0
    3.6690   -1.7349    0.3413 H   0  0  0  0  0  0  0  0  0  0  0  0
    5.9355   -0.7904    0.4266 H   0  0  0  0  0  0  0  0  0  0  0  0
  1  2  2  0
  2  3  1  0
  2  4  1  0
  4  5  1  0
  5  6  2  0
  6  7  1  0
  7  8  1  0
  8  9  2  0
  9 10  1  0
 10 11  1  0
 11 12  2  0
 11 13  2  0
 11 14  1  0
 14 15  2  0
 15 16  1  0
 16 17  2  0
 17 18  1  0
 18 19  2  0
 19 20  1  0
 20 21  1  0
 20 22  1  0
 20 23  1  0
 10 24  1  0
 24 25  2  0
 25 26  1  0
 26 27  2  0
 27 28  1  0
 28 29  2  0
  7 30  2  0
 30 31  1  0
 31  4  2  0
 29  8  1  0
 19 14  1  0
 29 24  1  0
  3 32  1  0
  5 33  1  0
  6 34  1  0
 15 35  1  0
 16 36  1  0
 17 37  1  0
 18 38  1  0
 25 39  1  0
 26 40  1  0
 27 41  1  0
 28 42  1  0
 30 43  1  0
 31 44  1  0
M  END
>  <QED>  (98) 
0.493

>  <MW>  (98) 
446.4

$$$$
CHEMBL3361054
     RDKit          3D

 70 72  0  0  0  0  0  0  0  0999 V2000
   -4.7471    3.1461    0.4647 C   0  0  0  0  0  0  0  0  0  0  0  0
   -4.7600    1.6542    0.8043 C   0  0  0  0  0  0  0  0  0  0  0  0
   -5.3295    1.4451    2.2090 C   0  0  0  0  0  0  0  0  0  0  0  0
   -3.3409    1.0768    0.6720 C   0  0  0  0  0  0  0  0  0  0  0  0
   -3.3418   -0.3996    0.8659 N   0  0  0  0  0  0  0  0  0  0  0  0
   -3.4506   -1.1904   -0.3849 C   0  0  0  0  0  0  0  0  0  0  0  0
   -4.8915   -1.4103   -0.8095 C   0  0  0  0  0  0  0  0  0  0  0  0
   -5.7412   -2.1003    0.0769 C   0  0  0  0  0  0  0  0  0  0  0  0
   -7.0750   -2.3424   -0.2463 C   0  0  0  0  0  0  0  0  0  0  0  0
   -7.5841   -1.9032   -1.4626 C   0  0  0  0  0  0  0  0  0  0  0  0
   -6.7588   -1.2213   -2.3564 C   0  0  0  0  0  0  0  0  0  0  0  0
   -5.4082   -0.9657   -2.0485 C   0  0  0  0  0  0  0  0  0  0  0  0
   -4.5540   -0.2195   -3.0466 C   0  0  0  0  0  0  0  0  0  0  0  0
   -4.0554    0.9426   -2.5398 F   0  0  0  0  0  0  0  0  0  0  0  0
   -3.4735   -0.9455   -3.4492 F   0  0  0  0  0  0  0  0  0  0  0  0
   -5.2114    0.1274   -4.1880 F   0  0  0  0  0  0  0  0  0  0  0  0
   -2.2838   -1.0195    2.0466 S   0  0  0  0  0  0  0  0  0  0  0  0
   -2.5249   -2.4434    2.1619 O   0  0  0  0  0  0  0  0  0  0  0  0
   -2.3438   -0.1642    3.2132 O   0  0  0  0  0  0  0  0  0  0  0  0
   -0.6791   -0.8064    1.3025 C   0  0  0  0  0  0  0  0  0  0  0  0
   -0.1146   -1.8486    0.5627 C   0  0  0  0  0  0  0  0  0  0  0  0
    1.1494   -1.6840   -0.0075 C   0  0  0  0  0  0  0  0  0  0  0  0
    1.8660   -0.4873    0.1662 C   0  0  0  0  0  0  0  0  0  0  0  0
    3.2513   -0.3440   -0.4464 C   0  0  0  0  0  0  0  0  0  0  0  0
    3.4839    1.0278   -0.7451 O   0  0  0  0  0  0  0  0  0  0  0  0
    4.3428   -0.9702    0.4695 C   0  0  0  0  0  0  0  0  0  0  0  0
    5.5073   -1.5475   -0.3562 C   0  0  0  0  0  0  0  0  0  0  0  0
    6.3162   -0.4791   -1.0905 C   0  0  0  0  0  0  0  0  0  0  0  0
    6.3104    0.8003   -0.3350 N   0  0  0  0  0  0  0  0  0  0  0  0
    7.3214    2.0333   -0.9294 S   0  0  0  0  0  0  0  0  0  0  0  0
    8.9495    1.4799   -0.4546 C   0  0  0  0  0  0  0  0  0  0  0  0
    7.0263    3.2371   -0.1846 O   0  0  0  0  0  0  0  0  0  0  0  0
    7.2361    2.0004   -2.3729 O   0  0  0  0  0  0  0  0  0  0  0  0
    6.2396    0.6375    1.1359 C   0  0  0  0  0  0  0  0  0  0  0  0
    4.8971    0.0115    1.5237 C   0  0  0  0  0  0  0  0  0  0  0  0
    1.2918    0.5363    0.9375 C   0  0  0  0  0  0  0  0  0  0  0  0
    0.0294    0.3780    1.5121 C   0  0  0  0  0  0  0  0  0  0  0  0
   -4.3810    3.3089   -0.5546 H   0  0  0  0  0  0  0  0  0  0  0  0
   -4.1021    3.7055    1.1509 H   0  0  0  0  0  0  0  0  0  0  0  0
   -5.7557    3.5682    0.5277 H   0  0  0  0  0  0  0  0  0  0  0  0
   -5.4296    1.1621    0.0920 H   0  0  0  0  0  0  0  0  0  0  0  0
   -6.3297    1.8841    2.2904 H   0  0  0  0  0  0  0  0  0  0  0  0
   -4.6939    1.9118    2.9691 H   0  0  0  0  0  0  0  0  0  0  0  0
   -5.4188    0.3805    2.4472 H   0  0  0  0  0  0  0  0  0  0  0  0
   -2.9156    1.3241   -0.3073 H   0  0  0  0  0  0  0  0  0  0  0  0
   -2.6960    1.5694    1.4073 H   0  0  0  0  0  0  0  0  0  0  0  0
   -2.8521   -0.7169   -1.1679 H   0  0  0  0  0  0  0  0  0  0  0  0
   -3.0168   -2.1900   -0.2667 H   0  0  0  0  0  0  0  0  0  0  0  0
   -5.3585   -2.4465    1.0376 H   0  0  0  0  0  0  0  0  0  0  0  0
   -7.7148   -2.8721    0.4552 H   0  0  0  0  0  0  0  0  0  0  0  0
   -8.6250   -2.0903   -1.7152 H   0  0  0  0  0  0  0  0  0  0  0  0
   -7.1796   -0.8853   -3.3038 H   0  0  0  0  0  0  0  0  0  0  0  0
   -0.6442   -2.7893    0.4300 H   0  0  0  0  0  0  0  0  0  0  0  0
    1.5778   -2.4999   -0.5865 H   0  0  0  0  0  0  0  0  0  0  0  0
    3.2343   -0.8661   -1.4112 H   0  0  0  0  0  0  0  0  0  0  0  0
    4.4466    1.1707   -0.8269 H   0  0  0  0  0  0  0  0  0  0  0  0
    3.8961   -1.8205    1.0031 H   0  0  0  0  0  0  0  0  0  0  0  0
    6.1771   -2.0905    0.3247 H   0  0  0  0  0  0  0  0  0  0  0  0
    5.1441   -2.2938   -1.0730 H   0  0  0  0  0  0  0  0  0  0  0  0
    5.8626   -0.3023   -2.0724 H   0  0  0  0  0  0  0  0  0  0  0  0
    7.3362   -0.8420   -1.2475 H   0  0  0  0  0  0  0  0  0  0  0  0
    9.6656    2.2314   -0.7955 H   0  0  0  0  0  0  0  0  0  0  0  0
    8.9995    1.3961    0.6319 H   0  0  0  0  0  0  0  0  0  0  0  0
    9.1664    0.5263   -0.9367 H   0  0  0  0  0  0  0  0  0  0  0  0
    7.0649   -0.0033    1.4689 H   0  0  0  0  0  0  0  0  0  0  0  0
    6.3414    1.5967    1.6528 H   0  0  0  0  0  0  0  0  0  0  0  0
    4.1699    0.8019    1.7399 H   0  0  0  0  0  0  0  0  0  0  0  0
    5.0362   -0.5203    2.4739 H   0  0  0  0  0  0  0  0  0  0  0  0
    1.8311    1.4699    1.0914 H   0  0  0  0  0  0  0  0  0  0  0  0
   -0.3857    1.1794    2.1188 H   0  0  0  0  0  0  0  0  0  0  0  0
  1  2  1  0
  2  3  1  0
  2  4  1  0
  4  5  1  0
  5  6  1  0
  6  7  1  0
  7  8  2  0
  8  9  1  0
  9 10  2  0
 10 11  1  0
 11 12  2  0
 12 13  1  0
 13 14  1  0
 13 15  1  0
 13 16  1  0
  5 17  1  0
 17 18  2  0
 17 19  2  0
 17 20  1  0
 20 21  1  0
 21 22  2  0
 22 23  1  0
 23 24  1  0
 24 25  1  0
 24 26  1  0
 26 27  1  0
 27 28  1  0
 28 29  1  0
 29 30  1  0
 30 31  1  0
 30 32  2  0
 30 33  2  0
 29 34  1  0
 34 35  1  0
 23 36  2  0
 36 37  1  0
 12  7  1  0
 37 20  2  0
 35 26  1  0
  1 38  1  0
  1 39  1  0
  1 40  1  0
  2 41  1  0
  3 42  1  0
  3 43  1  0
  3 44  1  0
  4 45  1  0
  4 46  1  0
  6 47  1  0
  6 48  1  0
  8 49  1  0
  9 50  1  0
 10 51  1  0
 11 52  1  0
 21 53  1  0
 22 54  1  0
 24 55  1  0
 25 56  1  0
 26 57  1  0
 27 58  1  0
 27 59  1  0
 28 60  1  0
 28 61  1  0
 31 62  1  0
 31 63  1  0
 31 64  1  0
 34 65  1  0
 34 66  1  0
 35 67  1  0
 35 68  1  0
 36 69  1  0
 37 70  1  0
M  END
>  <QED>  (99) 
0.493

>  <MW>  (99) 
562.7

$$$$
CHEMBL3218921
     RDKit          3D

 40 43  0  0  0  0  0  0  0  0999 V2000
    7.1882   -0.8500    2.1788 O   0  0  0  0  0  0  0  0  0  0  0  0
    6.6512   -0.9114    1.0886 C   0  0  0  0  0  0  0  0  0  0  0  0
    7.3635   -1.1586   -0.0254 O   0  0  0  0  0  0  0  0  0  0  0  0
    5.2044   -0.7305    0.8180 C   0  0  0  0  0  0  0  0  0  0  0  0
    4.3528   -0.4775    1.8987 C   0  0  0  0  0  0  0  0  0  0  0  0
    2.9818   -0.3014    1.6859 C   0  0  0  0  0  0  0  0  0  0  0  0
    2.4448   -0.3668    0.3917 C   0  0  0  0  0  0  0  0  0  0  0  0
    1.0081   -0.1788    0.1860 C   0  0  0  0  0  0  0  0  0  0  0  0
    0.1302   -0.7216    1.0330 N   0  0  0  0  0  0  0  0  0  0  0  0
   -1.1008   -0.3920    0.5591 N   0  0  0  0  0  0  0  0  0  0  0  0
   -2.2365   -0.8638    1.2601 C   0  0  0  0  0  0  0  0  0  0  0  0
   -2.0870   -1.5479    2.2741 O   0  0  0  0  0  0  0  0  0  0  0  0
   -3.6223   -0.5995    0.8686 C   0  0  0  0  0  0  0  0  0  0  0  0
   -4.2968    0.5073    1.3947 C   0  0  0  0  0  0  0  0  0  0  0  0
   -3.5248    1.6445    2.4382 Cl  0  0  0  0  0  0  0  0  0  0  0  0
   -5.6318    0.7350    1.0499 C   0  0  0  0  0  0  0  0  0  0  0  0
   -6.2924   -0.1414    0.1879 C   0  0  0  0  0  0  0  0  0  0  0  0
   -5.6187   -1.2463   -0.3348 C   0  0  0  0  0  0  0  0  0  0  0  0
   -4.2836   -1.4799    0.0059 C   0  0  0  0  0  0  0  0  0  0  0  0
   -3.4959   -2.8454   -0.6964 Cl  0  0  0  0  0  0  0  0  0  0  0  0
   -1.0223    0.3983   -0.5867 C   0  0  0  0  0  0  0  0  0  0  0  0
   -1.9873    0.9940   -1.4221 C   0  0  0  0  0  0  0  0  0  0  0  0
   -1.5505    1.7593   -2.5087 C   0  0  0  0  0  0  0  0  0  0  0  0
   -0.1969    1.9368   -2.7612 C   0  0  0  0  0  0  0  0  0  0  0  0
    0.7582    1.3442   -1.9328 C   0  0  0  0  0  0  0  0  0  0  0  0
    0.3441    0.5556   -0.8371 C   0  0  0  0  0  0  0  0  0  0  0  0
    3.3013   -0.6344   -0.6849 C   0  0  0  0  0  0  0  0  0  0  0  0
    4.6738   -0.8121   -0.4751 C   0  0  0  0  0  0  0  0  0  0  0  0
    8.2810   -1.2588    0.3049 H   0  0  0  0  0  0  0  0  0  0  0  0
    4.7480   -0.4220    2.9112 H   0  0  0  0  0  0  0  0  0  0  0  0
    2.3294   -0.1166    2.5383 H   0  0  0  0  0  0  0  0  0  0  0  0
   -6.1657    1.5937    1.4528 H   0  0  0  0  0  0  0  0  0  0  0  0
   -7.3338    0.0353   -0.0748 H   0  0  0  0  0  0  0  0  0  0  0  0
   -6.1426   -1.9246   -1.0057 H   0  0  0  0  0  0  0  0  0  0  0  0
   -3.0527    0.8913   -1.2592 H   0  0  0  0  0  0  0  0  0  0  0  0
   -2.2831    2.2286   -3.1627 H   0  0  0  0  0  0  0  0  0  0  0  0
    0.1235    2.5434   -3.6050 H   0  0  0  0  0  0  0  0  0  0  0  0
    1.8142    1.5038   -2.1334 H   0  0  0  0  0  0  0  0  0  0  0  0
    2.9097   -0.7307   -1.6948 H   0  0  0  0  0  0  0  0  0  0  0  0
    5.3172   -1.0224   -1.3261 H   0  0  0  0  0  0  0  0  0  0  0  0
  1  2  2  0
  2  3  1  0
  2  4  1  0
  4  5  1  0
  5  6  2  0
  6  7  1  0
  7  8  1  0
  8  9  2  0
  9 10  1  0
 10 11  1  0
 11 12  2  0
 11 13  1  0
 13 14  2  0
 14 15  1  0
 14 16  1  0
 16 17  2  0
 17 18  1  0
 18 19  2  0
 19 20  1  0
 10 21  1  0
 21 22  2  0
 22 23  1  0
 23 24  2  0
 24 25  1  0
 25 26  2  0
  7 27  2  0
 27 28  1  0
 28  4  2  0
 26  8  1  0
 19 13  1  0
 26 21  1  0
  3 29  1  0
  5 30  1  0
  6 31  1  0
 16 32  1  0
 17 33  1  0
 18 34  1  0
 22 35  1  0
 23 36  1  0
 24 37  1  0
 25 38  1  0
 27 39  1  0
 28 40  1  0
M  END
>  <QED>  (100) 
0.49

>  <MW>  (100) 
411.2

$$$$
CHEMBL3609399
     RDKit          3D

 55 57  0  0  0  0  0  0  0  0999 V2000
   -8.8027    0.8267   -1.6332 C   0  0  0  0  0  0  0  0  0  0  0  0
   -7.6719    0.6163   -0.6462 C   0  0  0  0  0  0  0  0  0  0  0  0
   -6.0860    0.9625   -1.3846 S   0  0  0  0  0  0  0  0  0  0  0  0
   -6.0175    2.3802   -1.6855 O   0  0  0  0  0  0  0  0  0  0  0  0
   -5.8246   -0.0299   -2.4095 O   0  0  0  0  0  0  0  0  0  0  0  0
   -4.9493    0.6525   -0.0513 C   0  0  0  0  0  0  0  0  0  0  0  0
   -4.4592   -0.6395    0.1476 C   0  0  0  0  0  0  0  0  0  0  0  0
   -3.5583   -0.8788    1.1859 C   0  0  0  0  0  0  0  0  0  0  0  0
   -3.1296    0.1710    2.0137 C   0  0  0  0  0  0  0  0  0  0  0  0
   -2.1431   -0.0901    3.1306 C   0  0  0  0  0  0  0  0  0  0  0  0
   -0.8225   -0.6990    2.6753 C   0  0  0  0  0  0  0  0  0  0  0  0
   -0.3773   -1.6968    3.2359 O   0  0  0  0  0  0  0  0  0  0  0  0
   -0.2157    0.0079    1.6504 N   0  0  0  0  0  0  0  0  0  0  0  0
    1.0221   -0.2609    1.0321 C   0  0  0  0  0  0  0  0  0  0  0  0
    1.8901   -1.2726    1.4306 C   0  0  0  0  0  0  0  0  0  0  0  0
    3.1048   -1.4640    0.7634 C   0  0  0  0  0  0  0  0  0  0  0  0
    3.4837   -0.6509   -0.3175 C   0  0  0  0  0  0  0  0  0  0  0  0
    4.7768   -0.8943   -0.9768 C   0  0  0  0  0  0  0  0  0  0  0  0
    4.8871   -1.9074   -1.9437 C   0  0  0  0  0  0  0  0  0  0  0  0
    6.0998   -2.1518   -2.5928 C   0  0  0  0  0  0  0  0  0  0  0  0
    7.2212   -1.3826   -2.2902 C   0  0  0  0  0  0  0  0  0  0  0  0
    7.1360   -0.3751   -1.3311 C   0  0  0  0  0  0  0  0  0  0  0  0
    5.9286   -0.1499   -0.6627 C   0  0  0  0  0  0  0  0  0  0  0  0
    5.8428    0.8651    0.2547 O   0  0  0  0  0  0  0  0  0  0  0  0
    6.4640    0.5043    1.4826 C   0  0  0  0  0  0  0  0  0  0  0  0
    6.0774   -0.7169    1.9105 F   0  0  0  0  0  0  0  0  0  0  0  0
    7.8103    0.5269    1.3602 F   0  0  0  0  0  0  0  0  0  0  0  0
    6.1190    1.4110    2.4246 F   0  0  0  0  0  0  0  0  0  0  0  0
    2.6040    0.3699   -0.7317 C   0  0  0  0  0  0  0  0  0  0  0  0
    2.9427    1.2834   -1.8802 C   0  0  0  0  0  0  0  0  0  0  0  0
    1.3886    0.5562   -0.0456 C   0  0  0  0  0  0  0  0  0  0  0  0
   -3.6282    1.4645    1.7959 C   0  0  0  0  0  0  0  0  0  0  0  0
   -4.5317    1.7091    0.7607 C   0  0  0  0  0  0  0  0  0  0  0  0
   -9.7655    0.6090   -1.1610 H   0  0  0  0  0  0  0  0  0  0  0  0
   -8.6931    0.1722   -2.5037 H   0  0  0  0  0  0  0  0  0  0  0  0
   -8.8246    1.8603   -1.9932 H   0  0  0  0  0  0  0  0  0  0  0  0
   -7.6588   -0.4216   -0.3004 H   0  0  0  0  0  0  0  0  0  0  0  0
   -7.7902    1.2817    0.2142 H   0  0  0  0  0  0  0  0  0  0  0  0
   -4.7638   -1.4600   -0.4992 H   0  0  0  0  0  0  0  0  0  0  0  0
   -3.1821   -1.8903    1.3387 H   0  0  0  0  0  0  0  0  0  0  0  0
   -1.9088    0.8354    3.6706 H   0  0  0  0  0  0  0  0  0  0  0  0
   -2.6123   -0.7696    3.8526 H   0  0  0  0  0  0  0  0  0  0  0  0
   -0.7460    0.7756    1.2556 H   0  0  0  0  0  0  0  0  0  0  0  0
    1.6616   -1.9308    2.2625 H   0  0  0  0  0  0  0  0  0  0  0  0
    3.7673   -2.2585    1.1046 H   0  0  0  0  0  0  0  0  0  0  0  0
    4.0168   -2.5090   -2.2007 H   0  0  0  0  0  0  0  0  0  0  0  0
    6.1645   -2.9380   -3.3412 H   0  0  0  0  0  0  0  0  0  0  0  0
    8.1608   -1.5649   -2.8059 H   0  0  0  0  0  0  0  0  0  0  0  0
    8.0110    0.2325   -1.1149 H   0  0  0  0  0  0  0  0  0  0  0  0
    3.7730    1.9427   -1.6092 H   0  0  0  0  0  0  0  0  0  0  0  0
    2.0907    1.9155   -2.1529 H   0  0  0  0  0  0  0  0  0  0  0  0
    3.2086    0.7043   -2.7702 H   0  0  0  0  0  0  0  0  0  0  0  0
    0.7221    1.3527   -0.3698 H   0  0  0  0  0  0  0  0  0  0  0  0
   -3.3144    2.2934    2.4284 H   0  0  0  0  0  0  0  0  0  0  0  0
   -4.8981    2.7202    0.5941 H   0  0  0  0  0  0  0  0  0  0  0  0
  1  2  1  0
  2  3  1  0
  3  4  2  0
  3  5  2  0
  3  6  1  0
  6  7  1  0
  7  8  2  0
  8  9  1  0
  9 10  1  0
 10 11  1  0
 11 12  2  0
 11 13  1  0
 13 14  1  0
 14 15  1  0
 15 16  2  0
 16 17  1  0
 17 18  1  0
 18 19  2  0
 19 20  1  0
 20 21  2  0
 21 22  1  0
 22 23  2  0
 23 24  1  0
 24 25  1  0
 25 26  1  0
 25 27  1  0
 25 28  1  0
 17 29  2  0
 29 30  1  0
 29 31  1  0
  9 32  2  0
 32 33  1  0
 33  6  2  0
 31 14  2  0
 23 18  1  0
  1 34  1  0
  1 35  1  0
  1 36  1  0
  2 37  1  0
  2 38  1  0
  7 39  1  0
  8 40  1  0
 10 41  1  0
 10 42  1  0
 13 43  1  0
 15 44  1  0
 16 45  1  0
 19 46  1  0
 20 47  1  0
 21 48  1  0
 22 49  1  0
 30 50  1  0
 30 51  1  0
 30 52  1  0
 31 53  1  0
 32 54  1  0
 33 55  1  0
M  END
>  <QED>  (101) 
0.485

>  <MW>  (101) 
477.5

$$$$
CHEMBL3609411
     RDKit          3D

 49 51  0  0  0  0  0  0  0  0999 V2000
   -3.9278   -1.7770   -2.5388 C   0  0  0  0  0  0  0  0  0  0  0  0
   -4.5386   -2.9631   -1.8219 C   0  0  0  0  0  0  0  0  0  0  0  0
   -5.5859   -2.5122   -0.4544 S   0  0  0  0  0  0  0  0  0  0  0  0
   -6.5526   -1.5334   -0.9144 O   0  0  0  0  0  0  0  0  0  0  0  0
   -6.0291   -3.7380    0.1846 O   0  0  0  0  0  0  0  0  0  0  0  0
   -4.4964   -1.7013    0.6940 C   0  0  0  0  0  0  0  0  0  0  0  0
   -3.7517   -2.4698    1.5922 C   0  0  0  0  0  0  0  0  0  0  0  0
   -2.9117   -1.8361    2.5099 C   0  0  0  0  0  0  0  0  0  0  0  0
   -2.8160   -0.4367    2.5352 C   0  0  0  0  0  0  0  0  0  0  0  0
   -1.9036    0.2566    3.5210 C   0  0  0  0  0  0  0  0  0  0  0  0
   -0.7939    1.0525    2.8472 C   0  0  0  0  0  0  0  0  0  0  0  0
   -0.7245    2.2704    2.9777 O   0  0  0  0  0  0  0  0  0  0  0  0
    0.0865    0.2535    2.1332 N   0  0  0  0  0  0  0  0  0  0  0  0
    1.1979    0.6664    1.3698 C   0  0  0  0  0  0  0  0  0  0  0  0
    1.9368   -0.3320    0.7307 C   0  0  0  0  0  0  0  0  0  0  0  0
    3.0492   -0.0074   -0.0564 C   0  0  0  0  0  0  0  0  0  0  0  0
    3.9003   -1.3226   -0.7982 Cl  0  0  0  0  0  0  0  0  0  0  0  0
    3.4554    1.3277   -0.2361 C   0  0  0  0  0  0  0  0  0  0  0  0
    4.6162    1.6743   -1.0840 C   0  0  0  0  0  0  0  0  0  0  0  0
    5.8846    1.8244   -0.4892 C   0  0  0  0  0  0  0  0  0  0  0  0
    7.0005    2.1532   -1.2602 C   0  0  0  0  0  0  0  0  0  0  0  0
    6.8585    2.3339   -2.6292 C   0  0  0  0  0  0  0  0  0  0  0  0
    7.9305    2.6484   -3.3669 F   0  0  0  0  0  0  0  0  0  0  0  0
    5.6228    2.1929   -3.2469 C   0  0  0  0  0  0  0  0  0  0  0  0
    4.4979    1.8632   -2.4804 C   0  0  0  0  0  0  0  0  0  0  0  0
    3.2331    1.7180   -3.1453 C   0  0  0  0  0  0  0  0  0  0  0  0
    2.2096    1.5893   -3.6771 N   0  0  0  0  0  0  0  0  0  0  0  0
    2.7003    2.3200    0.4188 C   0  0  0  0  0  0  0  0  0  0  0  0
    3.1005    4.0007    0.2691 Cl  0  0  0  0  0  0  0  0  0  0  0  0
    1.5903    1.9939    1.2118 C   0  0  0  0  0  0  0  0  0  0  0  0
   -3.5893    0.3209    1.6412 C   0  0  0  0  0  0  0  0  0  0  0  0
   -4.4340   -0.3073    0.7254 C   0  0  0  0  0  0  0  0  0  0  0  0
   -4.6984   -1.0861   -2.8946 H   0  0  0  0  0  0  0  0  0  0  0  0
   -3.3511   -2.1166   -3.4048 H   0  0  0  0  0  0  0  0  0  0  0  0
   -3.2501   -1.2192   -1.8862 H   0  0  0  0  0  0  0  0  0  0  0  0
   -3.7613   -3.6322   -1.4399 H   0  0  0  0  0  0  0  0  0  0  0  0
   -5.1659   -3.5346   -2.5140 H   0  0  0  0  0  0  0  0  0  0  0  0
   -3.8334   -3.5551    1.5967 H   0  0  0  0  0  0  0  0  0  0  0  0
   -2.3480   -2.4445    3.2146 H   0  0  0  0  0  0  0  0  0  0  0  0
   -1.4392   -0.4652    4.2040 H   0  0  0  0  0  0  0  0  0  0  0  0
   -2.4995    0.9352    4.1434 H   0  0  0  0  0  0  0  0  0  0  0  0
   -0.1219   -0.7383    2.1237 H   0  0  0  0  0  0  0  0  0  0  0  0
    1.6545   -1.3772    0.8361 H   0  0  0  0  0  0  0  0  0  0  0  0
    6.0077    1.6876    0.5843 H   0  0  0  0  0  0  0  0  0  0  0  0
    7.9775    2.2705   -0.8007 H   0  0  0  0  0  0  0  0  0  0  0  0
    5.5501    2.3415   -4.3212 H   0  0  0  0  0  0  0  0  0  0  0  0
    1.0444    2.8041    1.6867 H   0  0  0  0  0  0  0  0  0  0  0  0
   -3.5440    1.4099    1.6593 H   0  0  0  0  0  0  0  0  0  0  0  0
   -5.0375    0.2963    0.0502 H   0  0  0  0  0  0  0  0  0  0  0  0
  1  2  1  0
  2  3  1  0
  3  4  2  0
  3  5  2  0
  3  6  1  0
  6  7  1  0
  7  8  2  0
  8  9  1  0
  9 10  1  0
 10 11  1  0
 11 12  2  0
 11 13  1  0
 13 14  1  0
 14 15  1  0
 15 16  2  0
 16 17  1  0
 16 18  1  0
 18 19  1  0
 19 20  1  0
 20 21  2  0
 21 22  1  0
 22 23  1  0
 22 24  2  0
 24 25  1  0
 25 26  1  0
 26 27  3  0
 18 28  2  0
 28 29  1  0
 28 30  1  0
  9 31  2  0
 31 32  1  0
 32  6  2  0
 30 14  2  0
 25 19  2  0
  1 33  1  0
  1 34  1  0
  1 35  1  0
  2 36  1  0
  2 37  1  0
  7 38  1  0
  8 39  1  0
 10 40  1  0
 10 41  1  0
 13 42  1  0
 15 43  1  0
 20 44  1  0
 21 45  1  0
 24 46  1  0
 30 47  1  0
 31 48  1  0
 32 49  1  0
M  END
>  <QED>  (102) 
0.483

>  <MW>  (102) 
491.4

$$$$
CHEMBL3596628
     RDKit          3D

 53 55  0  0  0  0  0  0  0  0999 V2000
    0.6407    3.5153    0.8026 C   0  0  0  0  0  0  0  0  0  0  0  0
   -0.2093    3.0026   -0.3560 C   0  0  0  0  0  0  0  0  0  0  0  0
   -1.3560    3.9745   -0.6287 C   0  0  0  0  0  0  0  0  0  0  0  0
   -0.8095    1.7539   -0.0005 O   0  0  0  0  0  0  0  0  0  0  0  0
   -0.1915    0.5673   -0.3071 C   0  0  0  0  0  0  0  0  0  0  0  0
    1.1492    0.4891   -0.7215 C   0  0  0  0  0  0  0  0  0  0  0  0
    1.7813   -0.7434   -0.9517 C   0  0  0  0  0  0  0  0  0  0  0  0
    3.1910   -0.7989   -1.3691 C   0  0  0  0  0  0  0  0  0  0  0  0
    4.1902   -0.4433   -0.4417 C   0  0  0  0  0  0  0  0  0  0  0  0
    5.5501   -0.4874   -0.7808 C   0  0  0  0  0  0  0  0  0  0  0  0
    6.5468   -0.0873    0.2460 C   0  0  0  0  0  0  0  0  0  0  0  0
    7.8076   -0.6040    0.1330 N   0  0  0  0  0  0  0  0  0  0  0  0
    6.2488    0.6512    1.1751 O   0  0  0  0  0  0  0  0  0  0  0  0
    5.9305   -0.8731   -2.0691 C   0  0  0  0  0  0  0  0  0  0  0  0
    4.9546   -1.2237   -3.0041 C   0  0  0  0  0  0  0  0  0  0  0  0
    3.5977   -1.1882   -2.6597 C   0  0  0  0  0  0  0  0  0  0  0  0
    2.4583   -1.6080   -3.8931 Cl  0  0  0  0  0  0  0  0  0  0  0  0
    1.0465   -1.9115   -0.7446 C   0  0  0  0  0  0  0  0  0  0  0  0
   -0.2863   -1.8500   -0.3293 C   0  0  0  0  0  0  0  0  0  0  0  0
   -0.9342   -0.6234   -0.1042 C   0  0  0  0  0  0  0  0  0  0  0  0
   -2.3278   -0.6291    0.2845 N   0  0  0  0  0  0  0  0  0  0  0  0
   -3.1719    0.4686   -0.1877 C   0  0  0  0  0  0  0  0  0  0  0  0
   -2.8291   -1.6270    1.1395 C   0  0  0  0  0  0  0  0  0  0  0  0
   -2.1932   -2.5456    1.6534 O   0  0  0  0  0  0  0  0  0  0  0  0
   -4.2498   -1.5825    1.5046 C   0  0  0  0  0  0  0  0  0  0  0  0
   -4.6409   -0.7739    2.5695 C   0  0  0  0  0  0  0  0  0  0  0  0
   -3.7495   -0.0052    3.2108 F   0  0  0  0  0  0  0  0  0  0  0  0
   -5.9717   -0.7330    2.9780 C   0  0  0  0  0  0  0  0  0  0  0  0
   -6.9208   -1.5158    2.3216 C   0  0  0  0  0  0  0  0  0  0  0  0
   -6.5325   -2.3353    1.2580 C   0  0  0  0  0  0  0  0  0  0  0  0
   -5.1945   -2.3744    0.8492 C   0  0  0  0  0  0  0  0  0  0  0  0
   -4.7820   -3.3883   -0.4853 Cl  0  0  0  0  0  0  0  0  0  0  0  0
    1.4583    2.8255    1.0327 H   0  0  0  0  0  0  0  0  0  0  0  0
    1.0720    4.4945    0.5729 H   0  0  0  0  0  0  0  0  0  0  0  0
    0.0426    3.6022    1.7168 H   0  0  0  0  0  0  0  0  0  0  0  0
    0.3755    2.9295   -1.2797 H   0  0  0  0  0  0  0  0  0  0  0  0
   -1.9822    3.6027   -1.4472 H   0  0  0  0  0  0  0  0  0  0  0  0
   -0.9816    4.9664   -0.8998 H   0  0  0  0  0  0  0  0  0  0  0  0
   -2.0085    4.0708    0.2464 H   0  0  0  0  0  0  0  0  0  0  0  0
    1.7464    1.3855   -0.8548 H   0  0  0  0  0  0  0  0  0  0  0  0
    3.9046   -0.1357    0.5653 H   0  0  0  0  0  0  0  0  0  0  0  0
    8.4241   -0.4240    0.9163 H   0  0  0  0  0  0  0  0  0  0  0  0
    8.0021   -1.4230   -0.4249 H   0  0  0  0  0  0  0  0  0  0  0  0
    6.9741   -0.8770   -2.3704 H   0  0  0  0  0  0  0  0  0  0  0  0
    5.2558   -1.5126   -4.0087 H   0  0  0  0  0  0  0  0  0  0  0  0
    1.5006   -2.8872   -0.9050 H   0  0  0  0  0  0  0  0  0  0  0  0
   -0.8189   -2.7915   -0.2162 H   0  0  0  0  0  0  0  0  0  0  0  0
   -2.8127    0.8588   -1.1451 H   0  0  0  0  0  0  0  0  0  0  0  0
   -3.2046    1.2535    0.5737 H   0  0  0  0  0  0  0  0  0  0  0  0
   -4.1937    0.1223   -0.3650 H   0  0  0  0  0  0  0  0  0  0  0  0
   -6.2575   -0.0943    3.8090 H   0  0  0  0  0  0  0  0  0  0  0  0
   -7.9610   -1.4917    2.6391 H   0  0  0  0  0  0  0  0  0  0  0  0
   -7.2785   -2.9452    0.7526 H   0  0  0  0  0  0  0  0  0  0  0  0
  1  2  1  0
  2  3  1  0
  2  4  1  0
  4  5  1  0
  5  6  1  0
  6  7  2  0
  7  8  1  0
  8  9  1  0
  9 10  2  0
 10 11  1  0
 11 12  1  0
 11 13  2  0
 10 14  1  0
 14 15  2  0
 15 16  1  0
 16 17  1  0
  7 18  1  0
 18 19  2  0
 19 20  1  0
 20 21  1  0
 21 22  1  0
 21 23  1  0
 23 24  2  0
 23 25  1  0
 25 26  2  0
 26 27  1  0
 26 28  1  0
 28 29  2  0
 29 30  1  0
 30 31  2  0
 31 32  1  0
 20  5  2  0
 31 25  1  0
 16  8  2  0
  1 33  1  0
  1 34  1  0
  1 35  1  0
  2 36  1  0
  3 37  1  0
  3 38  1  0
  3 39  1  0
  6 40  1  0
  9 41  1  0
 12 42  1  0
 12 43  1  0
 14 44  1  0
 15 45  1  0
 18 46  1  0
 19 47  1  0
 22 48  1  0
 22 49  1  0
 22 50  1  0
 28 51  1  0
 29 52  1  0
 30 53  1  0
M  END
>  <QED>  (103) 
0.478

>  <MW>  (103) 
475.3

$$$$
CHEMBL3361064
     RDKit          3D

 66 68  0  0  0  0  0  0  0  0999 V2000
   -1.7109   -1.8540   -1.4319 C   0  0  0  0  0  0  0  0  0  0  0  0
   -2.6449   -2.7021   -0.5690 C   0  0  0  0  0  0  0  0  0  0  0  0
   -4.0320   -2.7840   -1.2037 C   0  0  0  0  0  0  0  0  0  0  0  0
   -2.6680   -2.2511    0.9044 C   0  0  0  0  0  0  0  0  0  0  0  0
   -3.1091   -0.8261    1.0670 N   0  0  0  0  0  0  0  0  0  0  0  0
   -4.5623   -0.7208    1.4124 C   0  0  0  0  0  0  0  0  0  0  0  0
   -5.2813    0.4650    0.7820 C   0  0  0  0  0  0  0  0  0  0  0  0
   -4.7947    1.0460   -0.4037 C   0  0  0  0  0  0  0  0  0  0  0  0
   -5.4536    2.1167   -1.0087 C   0  0  0  0  0  0  0  0  0  0  0  0
   -6.6185    2.6237   -0.4464 C   0  0  0  0  0  0  0  0  0  0  0  0
   -7.1306    2.0542    0.7177 C   0  0  0  0  0  0  0  0  0  0  0  0
   -6.4834    0.9681    1.3389 C   0  0  0  0  0  0  0  0  0  0  0  0
   -7.0869    0.3740    2.5927 C   0  0  0  0  0  0  0  0  0  0  0  0
   -8.3485    0.8163    2.8575 F   0  0  0  0  0  0  0  0  0  0  0  0
   -7.1842   -0.9850    2.5271 F   0  0  0  0  0  0  0  0  0  0  0  0
   -6.3560    0.6418    3.7078 F   0  0  0  0  0  0  0  0  0  0  0  0
   -2.1368    0.0864    2.1765 S   0  0  0  0  0  0  0  0  0  0  0  0
   -2.7140    1.4133    2.2794 O   0  0  0  0  0  0  0  0  0  0  0  0
   -1.9541   -0.7195    3.3673 O   0  0  0  0  0  0  0  0  0  0  0  0
   -0.5660    0.2679    1.3262 C   0  0  0  0  0  0  0  0  0  0  0  0
   -0.2755    1.4398    0.6462 C   0  0  0  0  0  0  0  0  0  0  0  0
    0.9711    1.5334    0.0322 C   0  0  0  0  0  0  0  0  0  0  0  0
    1.8801    0.4769    0.1193 C   0  0  0  0  0  0  0  0  0  0  0  0
    3.0686    0.6880   -0.5141 O   0  0  0  0  0  0  0  0  0  0  0  0
    4.0391   -0.3690   -0.5519 C   0  0  0  0  0  0  0  0  0  0  0  0
    4.8896   -0.1544   -1.8087 C   0  0  0  0  0  0  0  0  0  0  0  0
    5.7755    1.0839   -1.7037 C   0  0  0  0  0  0  0  0  0  0  0  0
    6.5853    1.0762   -0.4609 N   0  0  0  0  0  0  0  0  0  0  0  0
    8.0726    0.2601   -0.4684 S   0  0  0  0  0  0  0  0  0  0  0  0
    9.0707    1.3351   -1.4781 C   0  0  0  0  0  0  0  0  0  0  0  0
    7.8939   -0.9961   -1.1628 O   0  0  0  0  0  0  0  0  0  0  0  0
    8.6169    0.3005    0.8719 O   0  0  0  0  0  0  0  0  0  0  0  0
    5.7494    0.9400    0.7571 C   0  0  0  0  0  0  0  0  0  0  0  0
    4.9210   -0.3371    0.7002 C   0  0  0  0  0  0  0  0  0  0  0  0
    1.4898   -0.6483    0.8373 C   0  0  0  0  0  0  0  0  0  0  0  0
    0.2850   -0.7864    1.4421 N   0  0  0  0  0  0  0  0  0  0  0  0
   -2.0350   -0.8104   -1.4815 H   0  0  0  0  0  0  0  0  0  0  0  0
   -0.6906   -1.8797   -1.0389 H   0  0  0  0  0  0  0  0  0  0  0  0
   -1.6753   -2.2402   -2.4564 H   0  0  0  0  0  0  0  0  0  0  0  0
   -2.2418   -3.7242   -0.5716 H   0  0  0  0  0  0  0  0  0  0  0  0
   -4.4779   -1.7957   -1.3415 H   0  0  0  0  0  0  0  0  0  0  0  0
   -4.7079   -3.3883   -0.5902 H   0  0  0  0  0  0  0  0  0  0  0  0
   -3.9734   -3.2559   -2.1907 H   0  0  0  0  0  0  0  0  0  0  0  0
   -1.6636   -2.3981    1.3112 H   0  0  0  0  0  0  0  0  0  0  0  0
   -3.3163   -2.9149    1.4902 H   0  0  0  0  0  0  0  0  0  0  0  0
   -5.0948   -1.6189    1.0795 H   0  0  0  0  0  0  0  0  0  0  0  0
   -4.6601   -0.6991    2.5039 H   0  0  0  0  0  0  0  0  0  0  0  0
   -3.8851    0.6704   -0.8662 H   0  0  0  0  0  0  0  0  0  0  0  0
   -5.0525    2.5557   -1.9186 H   0  0  0  0  0  0  0  0  0  0  0  0
   -7.1296    3.4615   -0.9141 H   0  0  0  0  0  0  0  0  0  0  0  0
   -8.0472    2.4626    1.1424 H   0  0  0  0  0  0  0  0  0  0  0  0
   -0.9871    2.2571    0.5936 H   0  0  0  0  0  0  0  0  0  0  0  0
    1.2386    2.4361   -0.5120 H   0  0  0  0  0  0  0  0  0  0  0  0
    3.5475   -1.3428   -0.6600 H   0  0  0  0  0  0  0  0  0  0  0  0
    5.5041   -1.0442   -1.9815 H   0  0  0  0  0  0  0  0  0  0  0  0
    4.2373   -0.0415   -2.6832 H   0  0  0  0  0  0  0  0  0  0  0  0
    6.4200    1.1577   -2.5848 H   0  0  0  0  0  0  0  0  0  0  0  0
    5.1618    1.9931   -1.7050 H   0  0  0  0  0  0  0  0  0  0  0  0
   10.0887    0.9386   -1.4808 H   0  0  0  0  0  0  0  0  0  0  0  0
    9.0669    2.3350   -1.0402 H   0  0  0  0  0  0  0  0  0  0  0  0
    8.6828    1.3483   -2.4969 H   0  0  0  0  0  0  0  0  0  0  0  0
    5.0997    1.8208    0.8309 H   0  0  0  0  0  0  0  0  0  0  0  0
    6.3666    0.9554    1.6607 H   0  0  0  0  0  0  0  0  0  0  0  0
    5.5822   -1.2118    0.7014 H   0  0  0  0  0  0  0  0  0  0  0  0
    4.3077   -0.3916    1.6059 H   0  0  0  0  0  0  0  0  0  0  0  0
    2.1372   -1.5082    0.9719 H   0  0  0  0  0  0  0  0  0  0  0  0
  1  2  1  0
  2  3  1  0
  2  4  1  0
  4  5  1  0
  5  6  1  0
  6  7  1  0
  7  8  2  0
  8  9  1  0
  9 10  2  0
 10 11  1  0
 11 12  2  0
 12 13  1  0
 13 14  1  0
 13 15  1  0
 13 16  1  0
  5 17  1  0
 17 18  2  0
 17 19  2  0
 17 20  1  0
 20 21  2  0
 21 22  1  0
 22 23  2  0
 23 24  1  0
 24 25  1  0
 25 26  1  0
 26 27  1  0
 27 28  1  0
 28 29  1  0
 29 30  1  0
 29 31  2  0
 29 32  2  0
 28 33  1  0
 33 34  1  0
 23 35  1  0
 35 36  2  0
 12  7  1  0
 36 20  1  0
 34 25  1  0
  1 37  1  0
  1 38  1  0
  1 39  1  0
  2 40  1  0
  3 41  1  0
  3 42  1  0
  3 43  1  0
  4 44  1  0
  4 45  1  0
  6 46  1  0
  6 47  1  0
  8 48  1  0
  9 49  1  0
 10 50  1  0
 11 51  1  0
 21 52  1  0
 22 53  1  0
 25 54  1  0
 26 55  1  0
 26 56  1  0
 27 57  1  0
 27 58  1  0
 30 59  1  0
 30 60  1  0
 30 61  1  0
 33 62  1  0
 33 63  1  0
 34 64  1  0
 34 65  1  0
 35 66  1  0
M  END
>  <QED>  (104) 
0.473

>  <MW>  (104) 
549.6

$$$$
CHEMBL3361055
     RDKit          3D

 67 69  0  0  0  0  0  0  0  0999 V2000
   -4.9369   -0.9927   -2.5908 C   0  0  0  0  0  0  0  0  0  0  0  0
   -4.2100   -1.5299   -1.3598 C   0  0  0  0  0  0  0  0  0  0  0  0
   -5.1224   -1.4595   -0.1389 C   0  0  0  0  0  0  0  0  0  0  0  0
   -2.8259   -0.8912   -1.1347 C   0  0  0  0  0  0  0  0  0  0  0  0
   -2.8624    0.5914   -0.9631 N   0  0  0  0  0  0  0  0  0  0  0  0
   -2.4501    1.0687    0.3872 C   0  0  0  0  0  0  0  0  0  0  0  0
   -3.6089    1.2269    1.3522 C   0  0  0  0  0  0  0  0  0  0  0  0
   -4.6490    2.1078    0.9964 C   0  0  0  0  0  0  0  0  0  0  0  0
   -5.7360    2.3176    1.8432 C   0  0  0  0  0  0  0  0  0  0  0  0
   -5.8007    1.6577    3.0645 C   0  0  0  0  0  0  0  0  0  0  0  0
   -4.7750    0.7915    3.4422 C   0  0  0  0  0  0  0  0  0  0  0  0
   -3.6669    0.5669    2.6019 C   0  0  0  0  0  0  0  0  0  0  0  0
   -2.5716   -0.3660    3.0633 C   0  0  0  0  0  0  0  0  0  0  0  0
   -2.3953   -1.4236    2.2228 F   0  0  0  0  0  0  0  0  0  0  0  0
   -1.3597    0.2550    3.1345 F   0  0  0  0  0  0  0  0  0  0  0  0
   -2.7827   -0.9044    4.2961 F   0  0  0  0  0  0  0  0  0  0  0  0
   -2.2480    1.5318   -2.2591 S   0  0  0  0  0  0  0  0  0  0  0  0
   -2.6876    0.9544   -3.5105 O   0  0  0  0  0  0  0  0  0  0  0  0
   -2.5039    2.9250   -1.9556 O   0  0  0  0  0  0  0  0  0  0  0  0
   -0.4816    1.2834   -2.1578 C   0  0  0  0  0  0  0  0  0  0  0  0
    0.3057    2.1853   -1.4341 C   0  0  0  0  0  0  0  0  0  0  0  0
    1.6890    2.0022   -1.3739 C   0  0  0  0  0  0  0  0  0  0  0  0
    2.2881    0.9325   -2.0480 C   0  0  0  0  0  0  0  0  0  0  0  0
    3.7391    0.7534   -1.9801 C   0  0  0  0  0  0  0  0  0  0  0  0
    4.3652   -0.2182   -1.2902 C   0  0  0  0  0  0  0  0  0  0  0  0
    3.6958   -1.2787   -0.4393 C   0  0  0  0  0  0  0  0  0  0  0  0
    4.2767   -1.2941    0.9810 C   0  0  0  0  0  0  0  0  0  0  0  0
    5.7575   -1.4429    0.9308 N   0  0  0  0  0  0  0  0  0  0  0  0
    6.5282   -1.9570    2.3473 S   0  0  0  0  0  0  0  0  0  0  0  0
    6.3352   -0.5550    3.4317 C   0  0  0  0  0  0  0  0  0  0  0  0
    7.9392   -2.1018    2.0607 O   0  0  0  0  0  0  0  0  0  0  0  0
    5.7607   -3.0517    2.9012 O   0  0  0  0  0  0  0  0  0  0  0  0
    6.4225   -0.3632    0.1507 C   0  0  0  0  0  0  0  0  0  0  0  0
    5.8760   -0.3348   -1.2823 C   0  0  0  0  0  0  0  0  0  0  0  0
    1.4972    0.0579   -2.8031 C   0  0  0  0  0  0  0  0  0  0  0  0
    0.1137    0.2365   -2.8676 C   0  0  0  0  0  0  0  0  0  0  0  0
   -5.8774   -1.5321   -2.7489 H   0  0  0  0  0  0  0  0  0  0  0  0
   -5.1791    0.0698   -2.4869 H   0  0  0  0  0  0  0  0  0  0  0  0
   -4.3296   -1.1285   -3.4910 H   0  0  0  0  0  0  0  0  0  0  0  0
   -4.0232   -2.5972   -1.5431 H   0  0  0  0  0  0  0  0  0  0  0  0
   -5.5028   -0.4489    0.0224 H   0  0  0  0  0  0  0  0  0  0  0  0
   -5.9925   -2.1113   -0.2768 H   0  0  0  0  0  0  0  0  0  0  0  0
   -4.6029   -1.7951    0.7633 H   0  0  0  0  0  0  0  0  0  0  0  0
   -2.1902   -1.1586   -1.9843 H   0  0  0  0  0  0  0  0  0  0  0  0
   -2.3501   -1.3649   -0.2689 H   0  0  0  0  0  0  0  0  0  0  0  0
   -1.9805    2.0573    0.3370 H   0  0  0  0  0  0  0  0  0  0  0  0
   -1.6668    0.4134    0.7779 H   0  0  0  0  0  0  0  0  0  0  0  0
   -4.6163    2.6312    0.0403 H   0  0  0  0  0  0  0  0  0  0  0  0
   -6.5321    2.9954    1.5447 H   0  0  0  0  0  0  0  0  0  0  0  0
   -6.6494    1.8193    3.7249 H   0  0  0  0  0  0  0  0  0  0  0  0
   -4.8444    0.2896    4.4071 H   0  0  0  0  0  0  0  0  0  0  0  0
   -0.1429    3.0362   -0.9259 H   0  0  0  0  0  0  0  0  0  0  0  0
    2.2964    2.7033   -0.8054 H   0  0  0  0  0  0  0  0  0  0  0  0
    4.3104    1.4843   -2.5496 H   0  0  0  0  0  0  0  0  0  0  0  0
    3.8590   -2.2552   -0.9127 H   0  0  0  0  0  0  0  0  0  0  0  0
    2.6130   -1.1361   -0.3698 H   0  0  0  0  0  0  0  0  0  0  0  0
    3.8272   -2.1309    1.5249 H   0  0  0  0  0  0  0  0  0  0  0  0
    4.0174   -0.3660    1.5039 H   0  0  0  0  0  0  0  0  0  0  0  0
    6.8118   -0.8042    4.3827 H   0  0  0  0  0  0  0  0  0  0  0  0
    5.2732   -0.3670    3.5948 H   0  0  0  0  0  0  0  0  0  0  0  0
    6.8296    0.3127    2.9929 H   0  0  0  0  0  0  0  0  0  0  0  0
    6.2511    0.6031    0.6392 H   0  0  0  0  0  0  0  0  0  0  0  0
    7.5022   -0.5363    0.1018 H   0  0  0  0  0  0  0  0  0  0  0  0
    6.1554   -1.2611   -1.8004 H   0  0  0  0  0  0  0  0  0  0  0  0
    6.3444    0.4917   -1.8295 H   0  0  0  0  0  0  0  0  0  0  0  0
    1.9577   -0.7603   -3.3536 H   0  0  0  0  0  0  0  0  0  0  0  0
   -0.4841   -0.4350   -3.4799 H   0  0  0  0  0  0  0  0  0  0  0  0
  1  2  1  0
  2  3  1  0
  2  4  1  0
  4  5  1  0
  5  6  1  0
  6  7  1  0
  7  8  2  0
  8  9  1  0
  9 10  2  0
 10 11  1  0
 11 12  2  0
 12 13  1  0
 13 14  1  0
 13 15  1  0
 13 16  1  0
  5 17  1  0
 17 18  2  0
 17 19  2  0
 17 20  1  0
 20 21  1  0
 21 22  2  0
 22 23  1  0
 23 24  1  0
 24 25  2  3
 25 26  1  0
 26 27  1  0
 27 28  1  0
 28 29  1  0
 29 30  1  0
 29 31  2  0
 29 32  2  0
 28 33  1  0
 33 34  1  0
 23 35  2  0
 35 36  1  0
 12  7  1  0
 36 20  2  0
 34 25  1  0
  1 37  1  0
  1 38  1  0
  1 39  1  0
  2 40  1  0
  3 41  1  0
  3 42  1  0
  3 43  1  0
  4 44  1  0
  4 45  1  0
  6 46  1  0
  6 47  1  0
  8 48  1  0
  9 49  1  0
 10 50  1  0
 11 51  1  0
 21 52  1  0
 22 53  1  0
 24 54  1  0
 26 55  1  0
 26 56  1  0
 27 57  1  0
 27 58  1  0
 30 59  1  0
 30 60  1  0
 30 61  1  0
 33 62  1  0
 33 63  1  0
 34 64  1  0
 34 65  1  0
 35 66  1  0
 36 67  1  0
M  END
>  <QED>  (105) 
0.469

>  <MW>  (105) 
544.7

$$$$
CHEMBL3609392
     RDKit          3D

 51 53  0  0  0  0  0  0  0  0999 V2000
    7.6817    1.3884   -0.5872 C   0  0  0  0  0  0  0  0  0  0  0  0
    6.9016    2.2067    0.4211 C   0  0  0  0  0  0  0  0  0  0  0  0
    5.2889    2.6951   -0.1548 S   0  0  0  0  0  0  0  0  0  0  0  0
    4.6123    3.3768    0.9327 O   0  0  0  0  0  0  0  0  0  0  0  0
    5.4392    3.3400   -1.4460 O   0  0  0  0  0  0  0  0  0  0  0  0
    4.4228    1.1640   -0.4129 C   0  0  0  0  0  0  0  0  0  0  0  0
    4.2088    0.6944   -1.7103 C   0  0  0  0  0  0  0  0  0  0  0  0
    3.5190   -0.5036   -1.9024 C   0  0  0  0  0  0  0  0  0  0  0  0
    3.0289   -1.2263   -0.8040 C   0  0  0  0  0  0  0  0  0  0  0  0
    2.2781   -2.5223   -1.0162 C   0  0  0  0  0  0  0  0  0  0  0  0
    0.8774   -2.5474   -0.4167 C   0  0  0  0  0  0  0  0  0  0  0  0
    0.5192   -3.4958    0.2763 O   0  0  0  0  0  0  0  0  0  0  0  0
    0.0999   -1.4601   -0.7817 N   0  0  0  0  0  0  0  0  0  0  0  0
   -1.2381   -1.1977   -0.4217 C   0  0  0  0  0  0  0  0  0  0  0  0
   -2.0229   -2.0547    0.3477 C   0  0  0  0  0  0  0  0  0  0  0  0
   -3.3463   -1.7196    0.6620 C   0  0  0  0  0  0  0  0  0  0  0  0
   -3.9197   -0.5184    0.2168 C   0  0  0  0  0  0  0  0  0  0  0  0
   -5.3170   -0.2133    0.5682 C   0  0  0  0  0  0  0  0  0  0  0  0
   -6.3326   -0.5430   -0.3502 C   0  0  0  0  0  0  0  0  0  0  0  0
   -7.6740   -0.2827   -0.0698 C   0  0  0  0  0  0  0  0  0  0  0  0
   -8.0272    0.3096    1.1365 C   0  0  0  0  0  0  0  0  0  0  0  0
   -7.0389    0.6417    2.0622 C   0  0  0  0  0  0  0  0  0  0  0  0
   -5.6781    0.3898    1.7946 C   0  0  0  0  0  0  0  0  0  0  0  0
   -4.6421    0.7544    2.8341 C   0  0  0  0  0  0  0  0  0  0  0  0
   -4.0453   -0.3398    3.3851 F   0  0  0  0  0  0  0  0  0  0  0  0
   -3.6361    1.5338    2.3502 F   0  0  0  0  0  0  0  0  0  0  0  0
   -5.1603    1.4501    3.8888 F   0  0  0  0  0  0  0  0  0  0  0  0
   -3.1225    0.3359   -0.5642 C   0  0  0  0  0  0  0  0  0  0  0  0
   -3.7300    1.8385   -1.1740 Cl  0  0  0  0  0  0  0  0  0  0  0  0
   -1.7985    0.0005   -0.8764 C   0  0  0  0  0  0  0  0  0  0  0  0
    3.2489   -0.7369    0.4934 C   0  0  0  0  0  0  0  0  0  0  0  0
    3.9354    0.4616    0.6912 C   0  0  0  0  0  0  0  0  0  0  0  0
    7.1856    0.4375   -0.8020 H   0  0  0  0  0  0  0  0  0  0  0  0
    8.6801    1.1643   -0.1989 H   0  0  0  0  0  0  0  0  0  0  0  0
    7.7988    1.9278   -1.5322 H   0  0  0  0  0  0  0  0  0  0  0  0
    6.7698    1.6538    1.3562 H   0  0  0  0  0  0  0  0  0  0  0  0
    7.4408    3.1321    0.6492 H   0  0  0  0  0  0  0  0  0  0  0  0
    4.5731    1.2495   -2.5726 H   0  0  0  0  0  0  0  0  0  0  0  0
    3.3673   -0.8663   -2.9178 H   0  0  0  0  0  0  0  0  0  0  0  0
    2.8642   -3.3356   -0.5710 H   0  0  0  0  0  0  0  0  0  0  0  0
    2.1804   -2.7476   -2.0851 H   0  0  0  0  0  0  0  0  0  0  0  0
    0.5608   -0.7408   -1.3276 H   0  0  0  0  0  0  0  0  0  0  0  0
   -1.6402   -2.9980    0.7259 H   0  0  0  0  0  0  0  0  0  0  0  0
   -3.9292   -2.4129    1.2677 H   0  0  0  0  0  0  0  0  0  0  0  0
   -6.0762   -1.0073   -1.3016 H   0  0  0  0  0  0  0  0  0  0  0  0
   -8.4408   -0.5423   -0.7954 H   0  0  0  0  0  0  0  0  0  0  0  0
   -9.0720    0.5141    1.3577 H   0  0  0  0  0  0  0  0  0  0  0  0
   -7.3361    1.1039    3.0032 H   0  0  0  0  0  0  0  0  0  0  0  0
   -1.2101    0.6901   -1.4765 H   0  0  0  0  0  0  0  0  0  0  0  0
    2.8759   -1.2829    1.3598 H   0  0  0  0  0  0  0  0  0  0  0  0
    4.0752    0.8410    1.7015 H   0  0  0  0  0  0  0  0  0  0  0  0
  1  2  1  0
  2  3  1  0
  3  4  2  0
  3  5  2  0
  3  6  1  0
  6  7  1  0
  7  8  2  0
  8  9  1  0
  9 10  1  0
 10 11  1  0
 11 12  2  0
 11 13  1  0
 13 14  1  0
 14 15  1  0
 15 16  2  0
 16 17  1  0
 17 18  1  0
 18 19  2  0
 19 20  1  0
 20 21  2  0
 21 22  1  0
 22 23  2  0
 23 24  1  0
 24 25  1  0
 24 26  1  0
 24 27  1  0
 17 28  2  0
 28 29  1  0
 28 30  1  0
  9 31  2  0
 31 32  1  0
 32  6  2  0
 30 14  2  0
 23 18  1  0
  1 33  1  0
  1 34  1  0
  1 35  1  0
  2 36  1  0
  2 37  1  0
  7 38  1  0
  8 39  1  0
 10 40  1  0
 10 41  1  0
 13 42  1  0
 15 43  1  0
 16 44  1  0
 19 45  1  0
 20 46  1  0
 21 47  1  0
 22 48  1  0
 30 49  1  0
 31 50  1  0
 32 51  1  0
M  END
>  <QED>  (106) 
0.469

>  <MW>  (106) 
481.9

$$$$
CHEMBL3598061
     RDKit          3D

 66 70  0  0  0  0  0  0  0  0999 V2000
   -3.9647    2.4805    1.5672 H   0  0  0  0  0  0  0  0  0  0  0  0
   -3.2996    3.0670    0.9276 C   0  0  0  0  0  0  0  0  0  0  0  0
   -2.4309    3.4318    1.4837 H   0  0  0  0  0  0  0  0  0  0  0  0
   -3.8549    3.9502    0.5933 H   0  0  0  0  0  0  0  0  0  0  0  0
   -2.9009    2.2644   -0.2224 N   0  0  0  0  0  0  0  0  0  0  0  0
   -3.8226    2.2100   -1.2823 C   0  0  0  0  0  0  0  0  0  0  0  0
   -4.8770    2.8488   -1.2987 O   0  0  0  0  0  0  0  0  0  0  0  0
   -3.6118    1.3203   -2.4339 C   0  0  0  0  0  0  0  0  0  0  0  0
   -3.3495    1.9172   -3.6690 C   0  0  0  0  0  0  0  0  0  0  0  0
   -3.2124    3.2474   -3.7707 F   0  0  0  0  0  0  0  0  0  0  0  0
   -3.1756    1.1475   -4.8171 C   0  0  0  0  0  0  0  0  0  0  0  0
   -3.2832   -0.2385   -4.7408 C   0  0  0  0  0  0  0  0  0  0  0  0
   -3.5741   -0.8437   -3.5162 C   0  0  0  0  0  0  0  0  0  0  0  0
   -3.7499   -0.0671   -2.3626 C   0  0  0  0  0  0  0  0  0  0  0  0
   -4.1740   -0.8940   -0.9113 Cl  0  0  0  0  0  0  0  0  0  0  0  0
   -1.6204    1.6132   -0.1775 C   0  0  0  0  0  0  0  0  0  0  0  0
   -0.8049    1.6441   -1.3228 C   0  0  0  0  0  0  0  0  0  0  0  0
    0.4396    1.0131   -1.3552 C   0  0  0  0  0  0  0  0  0  0  0  0
    0.9055    0.3387   -0.2331 C   0  0  0  0  0  0  0  0  0  0  0  0
    2.1855   -0.3548   -0.2719 C   0  0  0  0  0  0  0  0  0  0  0  0
    3.4591    0.1599   -0.4232 C   0  0  0  0  0  0  0  0  0  0  0  0
    4.3294   -0.9448   -0.3772 C   0  0  0  0  0  0  0  0  0  0  0  0
    5.6974   -0.9952   -0.4659 N   0  0  0  0  0  0  0  0  0  0  0  0
    6.5255    0.0866   -0.6393 C   0  0  0  0  0  0  0  0  0  0  0  0
    6.1856    1.2644   -0.7378 O   0  0  0  0  0  0  0  0  0  0  0  0
    8.0056   -0.2982   -0.6887 C   0  0  0  0  0  0  0  0  0  0  0  0
    8.8262    0.7717   -1.1325 O   0  0  0  0  0  0  0  0  0  0  0  0
    3.6629   -2.0878   -0.2202 N   0  0  0  0  0  0  0  0  0  0  0  0
    2.3624   -1.7181   -0.1860 N   0  0  0  0  0  0  0  0  0  0  0  0
    1.3323   -2.7522   -0.0907 C   0  0  0  0  0  0  0  0  0  0  0  0
    1.4525   -3.7760   -1.2210 C   0  0  0  0  0  0  0  0  0  0  0  0
    1.3589   -3.4304    1.2783 C   0  0  0  0  0  0  0  0  0  0  0  0
    0.1381    0.3544    0.9369 C   0  0  0  0  0  0  0  0  0  0  0  0
   -1.1146    0.9999    1.0050 C   0  0  0  0  0  0  0  0  0  0  0  0
   -1.8567    0.9612    2.1924 N   0  0  0  0  0  0  0  0  0  0  0  0
   -1.1960    1.2809    3.4700 C   0  0  0  0  0  0  0  0  0  0  0  0
   -2.0199    0.5738    4.5053 C   0  0  0  0  0  0  0  0  0  0  0  0
   -3.5052    0.8038    4.6410 C   0  0  0  0  0  0  0  0  0  0  0  0
   -2.9700   -0.3338    3.8059 C   0  0  0  0  0  0  0  0  0  0  0  0
   -2.7601   -0.1946    2.3265 C   0  0  0  0  0  0  0  0  0  0  0  0
   -2.9591    1.6374   -5.7623 H   0  0  0  0  0  0  0  0  0  0  0  0
   -3.1537   -0.8463   -5.6335 H   0  0  0  0  0  0  0  0  0  0  0  0
   -3.6783   -1.9259   -3.4694 H   0  0  0  0  0  0  0  0  0  0  0  0
   -1.0942    2.2197   -2.1964 H   0  0  0  0  0  0  0  0  0  0  0  0
    1.0393    1.0602   -2.2616 H   0  0  0  0  0  0  0  0  0  0  0  0
    3.7144    1.2047   -0.5351 H   0  0  0  0  0  0  0  0  0  0  0  0
    6.0647   -1.9342   -0.4032 H   0  0  0  0  0  0  0  0  0  0  0  0
    8.3262   -0.5858    0.3170 H   0  0  0  0  0  0  0  0  0  0  0  0
    8.1473   -1.1424   -1.3697 H   0  0  0  0  0  0  0  0  0  0  0  0
    8.3169    1.5904   -0.9620 H   0  0  0  0  0  0  0  0  0  0  0  0
    0.3622   -2.2578   -0.2065 H   0  0  0  0  0  0  0  0  0  0  0  0
    0.6185   -4.4851   -1.1891 H   0  0  0  0  0  0  0  0  0  0  0  0
    2.3830   -4.3502   -1.1520 H   0  0  0  0  0  0  0  0  0  0  0  0
    1.4376   -3.2810   -2.1983 H   0  0  0  0  0  0  0  0  0  0  0  0
    1.2554   -2.6941    2.0827 H   0  0  0  0  0  0  0  0  0  0  0  0
    2.2979   -3.9705    1.4425 H   0  0  0  0  0  0  0  0  0  0  0  0
    0.5368   -4.1479    1.3706 H   0  0  0  0  0  0  0  0  0  0  0  0
    0.5200   -0.1677    1.8103 H   0  0  0  0  0  0  0  0  0  0  0  0
   -1.2007    2.3626    3.6386 H   0  0  0  0  0  0  0  0  0  0  0  0
   -0.1648    0.9210    3.5301 H   0  0  0  0  0  0  0  0  0  0  0  0
   -1.4600    0.2224    5.3585 H   0  0  0  0  0  0  0  0  0  0  0  0
   -3.9456    1.6545    4.1328 H   0  0  0  0  0  0  0  0  0  0  0  0
   -3.9720    0.5610    5.5882 H   0  0  0  0  0  0  0  0  0  0  0  0
   -3.1062   -1.3490    4.1452 H   0  0  0  0  0  0  0  0  0  0  0  0
   -3.7134   -0.0047    1.8270 H   0  0  0  0  0  0  0  0  0  0  0  0
   -2.3100   -1.1124    1.9303 H   0  0  0  0  0  0  0  0  0  0  0  0
  1  2  1  0
  2  3  1  0
  2  4  1  0
  2  5  1  0
  5  6  1  0
  6  7  2  0
  6  8  1  0
  8  9  2  0
  9 10  1  0
  9 11  1  0
 11 12  2  0
 12 13  1  0
 13 14  2  0
 14 15  1  0
  5 16  1  0
 16 17  1  0
 17 18  2  0
 18 19  1  0
 19 20  1  0
 20 21  2  0
 21 22  1  0
 22 23  1  0
 23 24  1  0
 24 25  2  0
 24 26  1  0
 26 27  1  0
 22 28  2  0
 28 29  1  0
 29 30  1  0
 30 31  1  0
 30 32  1  0
 19 33  2  0
 33 34  1  0
 34 35  1  0
 35 36  1  0
 36 37  1  0
 37 38  1  0
 38 39  1  0
 39 40  1  0
 14  8  1  0
 34 16  2  0
 40 35  1  0
 29 20  1  0
 39 37  1  0
 11 41  1  0
 12 42  1  0
 13 43  1  0
 17 44  1  0
 18 45  1  0
 21 46  1  0
 23 47  1  0
 26 48  1  0
 26 49  1  0
 27 50  1  0
 30 51  1  0
 31 52  1  0
 31 53  1  0
 31 54  1  0
 32 55  1  0
 32 56  1  0
 32 57  1  0
 33 58  1  0
 36 59  1  0
 36 60  1  0
 37 61  1  0
 38 62  1  0
 38 63  1  0
 39 64  1  0
 40 65  1  0
 40 66  1  0
M  ISO  3   1   2   3   2   4   2
M  END
>  <QED>  (107) 
0.468

>  <MW>  (107) 
529.0

$$$$
CHEMBL3609413
     RDKit          3D

 52 54  0  0  0  0  0  0  0  0999 V2000
   -3.0795    3.1455    0.8941 C   0  0  0  0  0  0  0  0  0  0  0  0
   -2.4007    1.9600    0.2581 C   0  0  0  0  0  0  0  0  0  0  0  0
   -1.0592    2.0886   -0.1570 C   0  0  0  0  0  0  0  0  0  0  0  0
   -0.3756    1.0220   -0.7424 C   0  0  0  0  0  0  0  0  0  0  0  0
    0.9626    1.0830   -1.1815 N   0  0  0  0  0  0  0  0  0  0  0  0
    1.8471    2.1425   -1.0662 C   0  0  0  0  0  0  0  0  0  0  0  0
    1.6084    3.2399   -0.5693 O   0  0  0  0  0  0  0  0  0  0  0  0
    3.2107    1.8665   -1.6886 C   0  0  0  0  0  0  0  0  0  0  0  0
    3.8469    0.5623   -1.2601 C   0  0  0  0  0  0  0  0  0  0  0  0
    4.0833    0.3002    0.0988 C   0  0  0  0  0  0  0  0  0  0  0  0
    4.6602   -0.9062    0.4975 C   0  0  0  0  0  0  0  0  0  0  0  0
    5.0217   -1.8466   -0.4690 C   0  0  0  0  0  0  0  0  0  0  0  0
    5.7420   -3.3900    0.0384 S   0  0  0  0  0  0  0  0  0  0  0  0
    7.4718   -3.0150    0.1513 C   0  0  0  0  0  0  0  0  0  0  0  0
    5.2510   -3.6814    1.3715 O   0  0  0  0  0  0  0  0  0  0  0  0
    5.5551   -4.3357   -1.0458 O   0  0  0  0  0  0  0  0  0  0  0  0
    4.7916   -1.6035   -1.8246 C   0  0  0  0  0  0  0  0  0  0  0  0
    4.2112   -0.3965   -2.2176 C   0  0  0  0  0  0  0  0  0  0  0  0
   -1.0457   -0.1915   -0.9141 C   0  0  0  0  0  0  0  0  0  0  0  0
   -2.3732   -0.3358   -0.5022 C   0  0  0  0  0  0  0  0  0  0  0  0
   -3.0686    0.7288    0.0929 C   0  0  0  0  0  0  0  0  0  0  0  0
   -4.4624    0.5241    0.5185 C   0  0  0  0  0  0  0  0  0  0  0  0
   -5.5016    0.6429   -0.4198 C   0  0  0  0  0  0  0  0  0  0  0  0
   -6.8346    0.4664   -0.0393 C   0  0  0  0  0  0  0  0  0  0  0  0
   -7.1431    0.1750    1.2873 C   0  0  0  0  0  0  0  0  0  0  0  0
   -8.7863   -0.0218    1.7571 Cl  0  0  0  0  0  0  0  0  0  0  0  0
   -6.1326    0.0471    2.2367 C   0  0  0  0  0  0  0  0  0  0  0  0
   -4.7987    0.1982    1.8465 C   0  0  0  0  0  0  0  0  0  0  0  0
   -3.8057    0.1139    2.7886 O   0  0  0  0  0  0  0  0  0  0  0  0
   -3.5394   -1.2381    3.1444 C   0  0  0  0  0  0  0  0  0  0  0  0
   -2.3952   -1.2829    3.8613 F   0  0  0  0  0  0  0  0  0  0  0  0
   -4.5350   -1.7307    3.9142 F   0  0  0  0  0  0  0  0  0  0  0  0
   -3.3899   -2.0260    2.0572 F   0  0  0  0  0  0  0  0  0  0  0  0
   -4.0297    3.3605    0.3950 H   0  0  0  0  0  0  0  0  0  0  0  0
   -3.2578    2.9553    1.9570 H   0  0  0  0  0  0  0  0  0  0  0  0
   -2.4656    4.0491    0.8156 H   0  0  0  0  0  0  0  0  0  0  0  0
   -0.5684    3.0462   -0.0096 H   0  0  0  0  0  0  0  0  0  0  0  0
    1.3332    0.2269   -1.5771 H   0  0  0  0  0  0  0  0  0  0  0  0
    3.8904    2.6843   -1.4191 H   0  0  0  0  0  0  0  0  0  0  0  0
    3.0857    1.9013   -2.7777 H   0  0  0  0  0  0  0  0  0  0  0  0
    3.8076    1.0320    0.8580 H   0  0  0  0  0  0  0  0  0  0  0  0
    4.8152   -1.1036    1.5565 H   0  0  0  0  0  0  0  0  0  0  0  0
    7.8311   -2.6918   -0.8275 H   0  0  0  0  0  0  0  0  0  0  0  0
    7.6199   -2.2322    0.8976 H   0  0  0  0  0  0  0  0  0  0  0  0
    7.9958   -3.9230    0.4576 H   0  0  0  0  0  0  0  0  0  0  0  0
    5.0552   -2.3439   -2.5775 H   0  0  0  0  0  0  0  0  0  0  0  0
    4.0432   -0.2133   -3.2777 H   0  0  0  0  0  0  0  0  0  0  0  0
   -0.5476   -1.0473   -1.3623 H   0  0  0  0  0  0  0  0  0  0  0  0
   -2.8647   -1.2979   -0.6391 H   0  0  0  0  0  0  0  0  0  0  0  0
   -5.2727    0.8855   -1.4564 H   0  0  0  0  0  0  0  0  0  0  0  0
   -7.6239    0.5675   -0.7799 H   0  0  0  0  0  0  0  0  0  0  0  0
   -6.3836   -0.1607    3.2735 H   0  0  0  0  0  0  0  0  0  0  0  0
  1  2  1  0
  2  3  1  0
  3  4  2  0
  4  5  1  0
  5  6  1  0
  6  7  2  0
  6  8  1  0
  8  9  1  0
  9 10  1  0
 10 11  2  0
 11 12  1  0
 12 13  1  0
 13 14  1  0
 13 15  2  0
 13 16  2  0
 12 17  2  0
 17 18  1  0
  4 19  1  0
 19 20  2  0
 20 21  1  0
 21 22  1  0
 22 23  1  0
 23 24  2  0
 24 25  1  0
 25 26  1  0
 25 27  2  0
 27 28  1  0
 28 29  1  0
 29 30  1  0
 30 31  1  0
 30 32  1  0
 30 33  1  0
 21  2  2  0
 28 22  2  0
 18  9  2  0
  1 34  1  0
  1 35  1  0
  1 36  1  0
  3 37  1  0
  5 38  1  0
  8 39  1  0
  8 40  1  0
 10 41  1  0
 11 42  1  0
 14 43  1  0
 14 44  1  0
 14 45  1  0
 17 46  1  0
 18 47  1  0
 19 48  1  0
 20 49  1  0
 23 50  1  0
 24 51  1  0
 27 52  1  0
M  END
>  <QED>  (108) 
0.467

>  <MW>  (108) 
497.9

$$$$
CHEMBL3361052
     RDKit          3D

 67 69  0  0  0  0  0  0  0  0999 V2000
   -4.5052    0.0953   -3.3295 C   0  0  0  0  0  0  0  0  0  0  0  0
   -4.3484   -0.9327   -2.2110 C   0  0  0  0  0  0  0  0  0  0  0  0
   -5.6295   -1.0093   -1.3858 C   0  0  0  0  0  0  0  0  0  0  0  0
   -3.0777   -0.7312   -1.3629 C   0  0  0  0  0  0  0  0  0  0  0  0
   -3.0010    0.5991   -0.6905 N   0  0  0  0  0  0  0  0  0  0  0  0
   -3.0596    0.5452    0.7980 C   0  0  0  0  0  0  0  0  0  0  0  0
   -4.4640    0.6904    1.3513 C   0  0  0  0  0  0  0  0  0  0  0  0
   -5.1798    1.8625    1.0373 C   0  0  0  0  0  0  0  0  0  0  0  0
   -6.4679    2.0724    1.5264 C   0  0  0  0  0  0  0  0  0  0  0  0
   -7.0626    1.1196    2.3447 C   0  0  0  0  0  0  0  0  0  0  0  0
   -6.3667   -0.0420    2.6786 C   0  0  0  0  0  0  0  0  0  0  0  0
   -5.0635   -0.2729    2.1961 C   0  0  0  0  0  0  0  0  0  0  0  0
   -4.3434   -1.5381    2.6008 C   0  0  0  0  0  0  0  0  0  0  0  0
   -3.9978   -2.3090    1.5319 F   0  0  0  0  0  0  0  0  0  0  0  0
   -3.1803   -1.2814    3.2634 F   0  0  0  0  0  0  0  0  0  0  0  0
   -5.0652   -2.3493    3.4228 F   0  0  0  0  0  0  0  0  0  0  0  0
   -1.8559    1.7128   -1.3117 S   0  0  0  0  0  0  0  0  0  0  0  0
   -1.8807    1.6570   -2.7572 O   0  0  0  0  0  0  0  0  0  0  0  0
   -2.0351    2.9706   -0.6163 O   0  0  0  0  0  0  0  0  0  0  0  0
   -0.2855    1.0393   -0.7913 C   0  0  0  0  0  0  0  0  0  0  0  0
    0.2874    1.4593    0.4103 C   0  0  0  0  0  0  0  0  0  0  0  0
    1.5305    0.9508    0.7925 C   0  0  0  0  0  0  0  0  0  0  0  0
    2.2165    0.0434   -0.0222 C   0  0  0  0  0  0  0  0  0  0  0  0
    3.4208   -0.3604    0.4795 O   0  0  0  0  0  0  0  0  0  0  0  0
    4.1755   -1.3621   -0.2167 C   0  0  0  0  0  0  0  0  0  0  0  0
    5.0427   -2.0810    0.8231 C   0  0  0  0  0  0  0  0  0  0  0  0
    6.1017   -1.1535    1.4119 C   0  0  0  0  0  0  0  0  0  0  0  0
    6.9211   -0.5897    0.3131 N   0  0  0  0  0  0  0  0  0  0  0  0
    8.4402    0.0402    0.7349 S   0  0  0  0  0  0  0  0  0  0  0  0
    8.0142    1.4987    1.6682 C   0  0  0  0  0  0  0  0  0  0  0  0
    9.0985    0.4687   -0.4805 O   0  0  0  0  0  0  0  0  0  0  0  0
    9.0755   -0.8944    1.6389 O   0  0  0  0  0  0  0  0  0  0  0  0
    6.1207    0.1893   -0.6612 C   0  0  0  0  0  0  0  0  0  0  0  0
    5.0658   -0.7202   -1.2851 C   0  0  0  0  0  0  0  0  0  0  0  0
    1.6531   -0.3417   -1.2392 C   0  0  0  0  0  0  0  0  0  0  0  0
    0.4071    0.1619   -1.6300 C   0  0  0  0  0  0  0  0  0  0  0  0
   -5.3783   -0.1391   -3.9485 H   0  0  0  0  0  0  0  0  0  0  0  0
   -4.6429    1.1066   -2.9339 H   0  0  0  0  0  0  0  0  0  0  0  0
   -3.6305    0.0908   -3.9871 H   0  0  0  0  0  0  0  0  0  0  0  0
   -4.2351   -1.9126   -2.6954 H   0  0  0  0  0  0  0  0  0  0  0  0
   -5.9182   -0.0305   -0.9974 H   0  0  0  0  0  0  0  0  0  0  0  0
   -6.4599   -1.3662   -2.0055 H   0  0  0  0  0  0  0  0  0  0  0  0
   -5.5214   -1.7082   -0.5513 H   0  0  0  0  0  0  0  0  0  0  0  0
   -2.2108   -0.8759   -2.0153 H   0  0  0  0  0  0  0  0  0  0  0  0
   -3.0097   -1.5376   -0.6244 H   0  0  0  0  0  0  0  0  0  0  0  0
   -2.4848    1.3600    1.2518 H   0  0  0  0  0  0  0  0  0  0  0  0
   -2.5646   -0.3652    1.1469 H   0  0  0  0  0  0  0  0  0  0  0  0
   -4.7301    2.6196    0.3943 H   0  0  0  0  0  0  0  0  0  0  0  0
   -7.0052    2.9808    1.2647 H   0  0  0  0  0  0  0  0  0  0  0  0
   -8.0680    1.2820    2.7256 H   0  0  0  0  0  0  0  0  0  0  0  0
   -6.8507   -0.7723    3.3268 H   0  0  0  0  0  0  0  0  0  0  0  0
   -0.2125    2.1849    1.0479 H   0  0  0  0  0  0  0  0  0  0  0  0
    1.9746    1.2726    1.7323 H   0  0  0  0  0  0  0  0  0  0  0  0
    3.5126   -2.1157   -0.6575 H   0  0  0  0  0  0  0  0  0  0  0  0
    5.5323   -2.9431    0.3532 H   0  0  0  0  0  0  0  0  0  0  0  0
    4.4133   -2.4590    1.6374 H   0  0  0  0  0  0  0  0  0  0  0  0
    6.7250   -1.7378    2.0962 H   0  0  0  0  0  0  0  0  0  0  0  0
    5.6344   -0.3455    1.9855 H   0  0  0  0  0  0  0  0  0  0  0  0
    8.9463    1.9730    1.9844 H   0  0  0  0  0  0  0  0  0  0  0  0
    7.4361    1.2099    2.5471 H   0  0  0  0  0  0  0  0  0  0  0  0
    7.4539    2.1849    1.0318 H   0  0  0  0  0  0  0  0  0  0  0  0
    5.6498    1.0445   -0.1641 H   0  0  0  0  0  0  0  0  0  0  0  0
    6.7588    0.5727   -1.4636 H   0  0  0  0  0  0  0  0  0  0  0  0
    5.5609   -1.5105   -1.8630 H   0  0  0  0  0  0  0  0  0  0  0  0
    4.4685   -0.1275   -1.9858 H   0  0  0  0  0  0  0  0  0  0  0  0
    2.1596   -1.0173   -1.9208 H   0  0  0  0  0  0  0  0  0  0  0  0
   -0.0054   -0.1260   -2.5951 H   0  0  0  0  0  0  0  0  0  0  0  0
  1  2  1  0
  2  3  1  0
  2  4  1  0
  4  5  1  0
  5  6  1  0
  6  7  1  0
  7  8  2  0
  8  9  1  0
  9 10  2  0
 10 11  1  0
 11 12  2  0
 12 13  1  0
 13 14  1  0
 13 15  1  0
 13 16  1  0
  5 17  1  0
 17 18  2  0
 17 19  2  0
 17 20  1  0
 20 21  1  0
 21 22  2  0
 22 23  1  0
 23 24  1  0
 24 25  1  0
 25 26  1  0
 26 27  1  0
 27 28  1  0
 28 29  1  0
 29 30  1  0
 29 31  2  0
 29 32  2  0
 28 33  1  0
 33 34  1  0
 23 35  2  0
 35 36  1  0
 12  7  1  0
 36 20  2  0
 34 25  1  0
  1 37  1  0
  1 38  1  0
  1 39  1  0
  2 40  1  0
  3 41  1  0
  3 42  1  0
  3 43  1  0
  4 44  1  0
  4 45  1  0
  6 46  1  0
  6 47  1  0
  8 48  1  0
  9 49  1  0
 10 50  1  0
 11 51  1  0
 21 52  1  0
 22 53  1  0
 25 54  1  0
 26 55  1  0
 26 56  1  0
 27 57  1  0
 27 58  1  0
 30 59  1  0
 30 60  1  0
 30 61  1  0
 33 62  1  0
 33 63  1  0
 34 64  1  0
 34 65  1  0
 35 66  1  0
 36 67  1  0
M  END
>  <QED>  (109) 
0.465

>  <MW>  (109) 
548.6

$$$$
CHEMBL3596629
     RDKit          3D

 53 55  0  0  0  0  0  0  0  0999 V2000
   -0.5288    5.3036    1.0186 C   0  0  0  0  0  0  0  0  0  0  0  0
   -0.9079    4.3565   -0.1107 C   0  0  0  0  0  0  0  0  0  0  0  0
   -0.1706    3.0224   -0.0263 C   0  0  0  0  0  0  0  0  0  0  0  0
   -0.5251    2.3708    1.1999 O   0  0  0  0  0  0  0  0  0  0  0  0
   -0.3271    1.0141    1.1261 C   0  0  0  0  0  0  0  0  0  0  0  0
    0.9830    0.5250    1.0330 C   0  0  0  0  0  0  0  0  0  0  0  0
    1.2292   -0.8501    0.9306 C   0  0  0  0  0  0  0  0  0  0  0  0
    2.5988   -1.3673    0.8022 C   0  0  0  0  0  0  0  0  0  0  0  0
    3.0318   -1.8381   -0.4526 C   0  0  0  0  0  0  0  0  0  0  0  0
    4.3292   -2.3378   -0.6388 C   0  0  0  0  0  0  0  0  0  0  0  0
    4.7075   -2.8199   -1.9941 C   0  0  0  0  0  0  0  0  0  0  0  0
    6.0391   -2.8828   -2.2964 N   0  0  0  0  0  0  0  0  0  0  0  0
    3.8607   -3.1203   -2.8256 O   0  0  0  0  0  0  0  0  0  0  0  0
    5.2093   -2.3919    0.4456 C   0  0  0  0  0  0  0  0  0  0  0  0
    4.7972   -1.9316    1.6984 C   0  0  0  0  0  0  0  0  0  0  0  0
    3.5057   -1.4215    1.8768 C   0  0  0  0  0  0  0  0  0  0  0  0
    3.0739   -0.8920    3.4663 Cl  0  0  0  0  0  0  0  0  0  0  0  0
    0.1343   -1.7236    0.9441 C   0  0  0  0  0  0  0  0  0  0  0  0
   -1.1727   -1.2368    1.0626 C   0  0  0  0  0  0  0  0  0  0  0  0
   -1.4278    0.1381    1.1477 C   0  0  0  0  0  0  0  0  0  0  0  0
   -2.7725    0.6044    1.2880 N   0  0  0  0  0  0  0  0  0  0  0  0
   -3.0325    1.6601    2.2583 C   0  0  0  0  0  0  0  0  0  0  0  0
   -3.8711    0.1437    0.5481 C   0  0  0  0  0  0  0  0  0  0  0  0
   -5.0383    0.4445    0.7998 O   0  0  0  0  0  0  0  0  0  0  0  0
   -3.6509   -0.6496   -0.6727 C   0  0  0  0  0  0  0  0  0  0  0  0
   -3.0055   -0.0484   -1.7543 C   0  0  0  0  0  0  0  0  0  0  0  0
   -2.5727    1.2188   -1.6803 F   0  0  0  0  0  0  0  0  0  0  0  0
   -2.8057   -0.7445   -2.9443 C   0  0  0  0  0  0  0  0  0  0  0  0
   -3.2701   -2.0524   -3.0666 C   0  0  0  0  0  0  0  0  0  0  0  0
   -3.9376   -2.6547   -1.9977 C   0  0  0  0  0  0  0  0  0  0  0  0
   -4.1367   -1.9538   -0.8017 C   0  0  0  0  0  0  0  0  0  0  0  0
   -4.9378   -2.7804    0.4861 Cl  0  0  0  0  0  0  0  0  0  0  0  0
   -0.7994    4.8888    1.9947 H   0  0  0  0  0  0  0  0  0  0  0  0
   -1.0529    6.2576    0.9024 H   0  0  0  0  0  0  0  0  0  0  0  0
    0.5471    5.5048    1.0161 H   0  0  0  0  0  0  0  0  0  0  0  0
   -1.9890    4.1803   -0.0683 H   0  0  0  0  0  0  0  0  0  0  0  0
   -0.6862    4.8328   -1.0721 H   0  0  0  0  0  0  0  0  0  0  0  0
   -0.4488    2.4111   -0.8943 H   0  0  0  0  0  0  0  0  0  0  0  0
    0.9120    3.1942   -0.0483 H   0  0  0  0  0  0  0  0  0  0  0  0
    1.8157    1.2241    1.0444 H   0  0  0  0  0  0  0  0  0  0  0  0
    2.3477   -1.8099   -1.3016 H   0  0  0  0  0  0  0  0  0  0  0  0
    6.2612   -3.0983   -3.2607 H   0  0  0  0  0  0  0  0  0  0  0  0
    6.7423   -2.3953   -1.7608 H   0  0  0  0  0  0  0  0  0  0  0  0
    6.2055   -2.8127    0.3446 H   0  0  0  0  0  0  0  0  0  0  0  0
    5.4846   -1.9837    2.5401 H   0  0  0  0  0  0  0  0  0  0  0  0
    0.2924   -2.7996    0.8899 H   0  0  0  0  0  0  0  0  0  0  0  0
   -1.9785   -1.9600    1.1479 H   0  0  0  0  0  0  0  0  0  0  0  0
   -2.2728    1.6739    3.0459 H   0  0  0  0  0  0  0  0  0  0  0  0
   -3.0691    2.6217    1.7381 H   0  0  0  0  0  0  0  0  0  0  0  0
   -4.0030    1.4988    2.7391 H   0  0  0  0  0  0  0  0  0  0  0  0
   -2.2961   -0.2577   -3.7709 H   0  0  0  0  0  0  0  0  0  0  0  0
   -3.1190   -2.6008   -3.9939 H   0  0  0  0  0  0  0  0  0  0  0  0
   -4.3019   -3.6748   -2.1027 H   0  0  0  0  0  0  0  0  0  0  0  0
  1  2  1  0
  2  3  1  0
  3  4  1  0
  4  5  1  0
  5  6  1  0
  6  7  2  0
  7  8  1  0
  8  9  1  0
  9 10  2  0
 10 11  1  0
 11 12  1  0
 11 13  2  0
 10 14  1  0
 14 15  2  0
 15 16  1  0
 16 17  1  0
  7 18  1  0
 18 19  2  0
 19 20  1  0
 20 21  1  0
 21 22  1  0
 21 23  1  0
 23 24  2  0
 23 25  1  0
 25 26  2  0
 26 27  1  0
 26 28  1  0
 28 29  2  0
 29 30  1  0
 30 31  2  0
 31 32  1  0
 20  5  2  0
 31 25  1  0
 16  8  2  0
  1 33  1  0
  1 34  1  0
  1 35  1  0
  2 36  1  0
  2 37  1  0
  3 38  1  0
  3 39  1  0
  6 40  1  0
  9 41  1  0
 12 42  1  0
 12 43  1  0
 14 44  1  0
 15 45  1  0
 18 46  1  0
 19 47  1  0
 22 48  1  0
 22 49  1  0
 22 50  1  0
 28 51  1  0
 29 52  1  0
 30 53  1  0
M  END
>  <QED>  (110) 
0.458

>  <MW>  (110) 
475.3

$$$$
CHEMBL3361027
     RDKit          3D

 61 63  0  0  0  0  0  0  0  0999 V2000
   -4.9189   -2.9747    0.2510 C   0  0  0  0  0  0  0  0  0  0  0  0
   -3.4763   -3.3869   -0.0444 C   0  0  0  0  0  0  0  0  0  0  0  0
   -3.4371   -4.2733   -1.2917 C   0  0  0  0  0  0  0  0  0  0  0  0
   -2.5507   -2.1736   -0.2409 C   0  0  0  0  0  0  0  0  0  0  0  0
   -2.4294   -1.3677    1.0050 N   0  0  0  0  0  0  0  0  0  0  0  0
   -2.5927    0.1009    0.7982 C   0  0  0  0  0  0  0  0  0  0  0  0
   -4.0750    0.4769    0.7313 C   0  0  0  0  0  0  0  0  0  0  0  0
   -4.2592    1.9663    0.5748 C   0  0  0  0  0  0  0  0  0  0  0  0
   -4.3594    2.5420   -0.6988 C   0  0  0  0  0  0  0  0  0  0  0  0
   -4.5054    3.9229   -0.8394 C   0  0  0  0  0  0  0  0  0  0  0  0
   -4.5484    4.7395    0.2892 C   0  0  0  0  0  0  0  0  0  0  0  0
   -4.4454    4.1766    1.5599 C   0  0  0  0  0  0  0  0  0  0  0  0
   -4.2997    2.7963    1.7033 C   0  0  0  0  0  0  0  0  0  0  0  0
   -1.2189   -1.8306    2.1231 S   0  0  0  0  0  0  0  0  0  0  0  0
   -1.1855   -3.2754    2.1995 O   0  0  0  0  0  0  0  0  0  0  0  0
   -1.3823   -1.0276    3.3172 O   0  0  0  0  0  0  0  0  0  0  0  0
    0.2959   -1.3084    1.3373 C   0  0  0  0  0  0  0  0  0  0  0  0
    0.7936   -0.0256    1.5753 C   0  0  0  0  0  0  0  0  0  0  0  0
    1.9971    0.3696    0.9842 C   0  0  0  0  0  0  0  0  0  0  0  0
    2.7274   -0.5100    0.1657 C   0  0  0  0  0  0  0  0  0  0  0  0
    3.9957   -0.0908   -0.4527 C   0  0  0  0  0  0  0  0  0  0  0  0
    4.1912   -0.1951   -1.8415 C   0  0  0  0  0  0  0  0  0  0  0  0
    5.3947    0.1985   -2.4332 C   0  0  0  0  0  0  0  0  0  0  0  0
    6.4164    0.7110   -1.6332 C   0  0  0  0  0  0  0  0  0  0  0  0
    7.9554    1.1979   -2.3761 S   0  0  0  0  0  0  0  0  0  0  0  0
    7.7167    2.9236   -2.7085 C   0  0  0  0  0  0  0  0  0  0  0  0
    8.9880    1.0706   -1.3656 O   0  0  0  0  0  0  0  0  0  0  0  0
    8.0669    0.5058   -3.6460 O   0  0  0  0  0  0  0  0  0  0  0  0
    6.2567    0.8096   -0.2507 C   0  0  0  0  0  0  0  0  0  0  0  0
    5.0486    0.4149    0.3308 C   0  0  0  0  0  0  0  0  0  0  0  0
    2.2205   -1.8061   -0.0346 C   0  0  0  0  0  0  0  0  0  0  0  0
    1.0185   -2.2103    0.5537 C   0  0  0  0  0  0  0  0  0  0  0  0
   -5.5586   -3.8571    0.3608 H   0  0  0  0  0  0  0  0  0  0  0  0
   -4.9847   -2.4068    1.1840 H   0  0  0  0  0  0  0  0  0  0  0  0
   -5.3313   -2.3607   -0.5566 H   0  0  0  0  0  0  0  0  0  0  0  0
   -3.1261   -3.9905    0.7993 H   0  0  0  0  0  0  0  0  0  0  0  0
   -4.0687   -5.1583   -1.1607 H   0  0  0  0  0  0  0  0  0  0  0  0
   -2.4172   -4.6190   -1.4908 H   0  0  0  0  0  0  0  0  0  0  0  0
   -3.7912   -3.7321   -2.1758 H   0  0  0  0  0  0  0  0  0  0  0  0
   -2.9382   -1.5518   -1.0577 H   0  0  0  0  0  0  0  0  0  0  0  0
   -1.5601   -2.5015   -0.5707 H   0  0  0  0  0  0  0  0  0  0  0  0
   -2.1361    0.6594    1.6221 H   0  0  0  0  0  0  0  0  0  0  0  0
   -2.0667    0.4076   -0.1145 H   0  0  0  0  0  0  0  0  0  0  0  0
   -4.5932    0.1367    1.6371 H   0  0  0  0  0  0  0  0  0  0  0  0
   -4.5677   -0.0352   -0.1032 H   0  0  0  0  0  0  0  0  0  0  0  0
   -4.3289    1.9195   -1.5901 H   0  0  0  0  0  0  0  0  0  0  0  0
   -4.5880    4.3626   -1.8300 H   0  0  0  0  0  0  0  0  0  0  0  0
   -4.6645    5.8145    0.1790 H   0  0  0  0  0  0  0  0  0  0  0  0
   -4.4802    4.8127    2.4407 H   0  0  0  0  0  0  0  0  0  0  0  0
   -4.2197    2.3716    2.7023 H   0  0  0  0  0  0  0  0  0  0  0  0
    0.2612    0.6685    2.2219 H   0  0  0  0  0  0  0  0  0  0  0  0
    2.3651    1.3777    1.1680 H   0  0  0  0  0  0  0  0  0  0  0  0
    3.3978   -0.5857   -2.4767 H   0  0  0  0  0  0  0  0  0  0  0  0
    5.5238    0.0943   -3.5085 H   0  0  0  0  0  0  0  0  0  0  0  0
    8.6270    3.3079   -3.1738 H   0  0  0  0  0  0  0  0  0  0  0  0
    7.5321    3.4464   -1.7681 H   0  0  0  0  0  0  0  0  0  0  0  0
    6.8730    3.0422   -3.3910 H   0  0  0  0  0  0  0  0  0  0  0  0
    7.0623    1.1768    0.3818 H   0  0  0  0  0  0  0  0  0  0  0  0
    4.9394    0.4839    1.4123 H   0  0  0  0  0  0  0  0  0  0  0  0
    2.7771   -2.5226   -0.6370 H   0  0  0  0  0  0  0  0  0  0  0  0
    0.6635   -3.2278    0.4038 H   0  0  0  0  0  0  0  0  0  0  0  0
  1  2  1  0
  2  3  1  0
  2  4  1  0
  4  5  1  0
  5  6  1  0
  6  7  1  0
  7  8  1  0
  8  9  2  0
  9 10  1  0
 10 11  2  0
 11 12  1  0
 12 13  2  0
  5 14  1  0
 14 15  2  0
 14 16  2  0
 14 17  1  0
 17 18  1  0
 18 19  2  0
 19 20  1  0
 20 21  1  0
 21 22  1  0
 22 23  2  0
 23 24  1  0
 24 25  1  0
 25 26  1  0
 25 27  2  0
 25 28  2  0
 24 29  2  0
 29 30  1  0
 20 31  2  0
 31 32  1  0
 13  8  1  0
 32 17  2  0
 30 21  2  0
  1 33  1  0
  1 34  1  0
  1 35  1  0
  2 36  1  0
  3 37  1  0
  3 38  1  0
  3 39  1  0
  4 40  1  0
  4 41  1  0
  6 42  1  0
  6 43  1  0
  7 44  1  0
  7 45  1  0
  9 46  1  0
 10 47  1  0
 11 48  1  0
 12 49  1  0
 13 50  1  0
 18 51  1  0
 19 52  1  0
 22 53  1  0
 23 54  1  0
 26 55  1  0
 26 56  1  0
 26 57  1  0
 29 58  1  0
 30 59  1  0
 31 60  1  0
 32 61  1  0
M  END
>  <QED>  (111) 
0.456

>  <MW>  (111) 
471.6

$$$$
CHEMBL3598055
     RDKit          3D

 62 66  0  0  0  0  0  0  0  0999 V2000
   -2.3977    0.6675   -2.3095 H   0  0  0  0  0  0  0  0  0  0  0  0
   -3.1023    0.2840   -1.5656 C   0  0  0  0  0  0  0  0  0  0  0  0
   -3.5097    1.0950   -0.9568 H   0  0  0  0  0  0  0  0  0  0  0  0
   -3.9269   -0.1652   -2.1260 H   0  0  0  0  0  0  0  0  0  0  0  0
   -2.4833   -0.7164   -0.6942 N   0  0  0  0  0  0  0  0  0  0  0  0
   -3.2411   -1.6441    0.0355 C   0  0  0  0  0  0  0  0  0  0  0  0
   -2.8105   -2.4616    0.8470 O   0  0  0  0  0  0  0  0  0  0  0  0
   -4.6978   -1.6426   -0.1410 C   0  0  0  0  0  0  0  0  0  0  0  0
   -5.2402   -2.4718   -1.1211 C   0  0  0  0  0  0  0  0  0  0  0  0
   -4.4454   -3.2018   -1.9168 F   0  0  0  0  0  0  0  0  0  0  0  0
   -6.6181   -2.5423   -1.3093 C   0  0  0  0  0  0  0  0  0  0  0  0
   -7.4649   -1.7843   -0.5018 C   0  0  0  0  0  0  0  0  0  0  0  0
   -6.9270   -0.9608    0.4913 C   0  0  0  0  0  0  0  0  0  0  0  0
   -5.5415   -0.8917    0.6786 C   0  0  0  0  0  0  0  0  0  0  0  0
   -4.9440    0.1443    1.9220 Cl  0  0  0  0  0  0  0  0  0  0  0  0
   -1.0426   -0.7235   -0.6154 C   0  0  0  0  0  0  0  0  0  0  0  0
   -0.3830   -1.9673   -0.6131 C   0  0  0  0  0  0  0  0  0  0  0  0
    1.0085   -2.0537   -0.6432 C   0  0  0  0  0  0  0  0  0  0  0  0
    1.7734   -0.8935   -0.6696 C   0  0  0  0  0  0  0  0  0  0  0  0
    3.2266   -0.9744   -0.6900 C   0  0  0  0  0  0  0  0  0  0  0  0
    4.0731   -1.3812   -1.7031 C   0  0  0  0  0  0  0  0  0  0  0  0
    5.3856   -1.2358   -1.1994 C   0  0  0  0  0  0  0  0  0  0  0  0
    6.5187   -1.5299   -1.9252 N   0  0  0  0  0  0  0  0  0  0  0  0
    7.8073   -1.3943   -1.4720 C   0  0  0  0  0  0  0  0  0  0  0  0
    8.2364   -1.0029   -0.3977 O   0  0  0  0  0  0  0  0  0  0  0  0
    5.3653   -0.7803    0.0490 N   0  0  0  0  0  0  0  0  0  0  0  0
    4.0602   -0.6575    0.3587 N   0  0  0  0  0  0  0  0  0  0  0  0
    3.6880   -0.2331    1.7075 C   0  0  0  0  0  0  0  0  0  0  0  0
    4.0664    1.2277    1.9486 C   0  0  0  0  0  0  0  0  0  0  0  0
    4.2909   -1.1475    2.7754 C   0  0  0  0  0  0  0  0  0  0  0  0
    1.1336    0.3535   -0.6645 C   0  0  0  0  0  0  0  0  0  0  0  0
   -0.2698    0.4752   -0.6200 C   0  0  0  0  0  0  0  0  0  0  0  0
   -0.8772    1.7299   -0.4695 N   0  0  0  0  0  0  0  0  0  0  0  0
   -0.3134    2.9469   -1.0727 C   0  0  0  0  0  0  0  0  0  0  0  0
   -0.9401    4.0670   -0.2907 C   0  0  0  0  0  0  0  0  0  0  0  0
   -2.4324    4.1797   -0.0935 C   0  0  0  0  0  0  0  0  0  0  0  0
   -1.5663    3.4840    0.9289 C   0  0  0  0  0  0  0  0  0  0  0  0
   -1.3448    1.9987    0.9066 C   0  0  0  0  0  0  0  0  0  0  0  0
   -7.0214   -3.1913   -2.0815 H   0  0  0  0  0  0  0  0  0  0  0  0
   -8.5427   -1.8381   -0.6400 H   0  0  0  0  0  0  0  0  0  0  0  0
   -7.5956   -0.3784    1.1222 H   0  0  0  0  0  0  0  0  0  0  0  0
   -0.9500   -2.8954   -0.6263 H   0  0  0  0  0  0  0  0  0  0  0  0
    1.4810   -3.0329   -0.6446 H   0  0  0  0  0  0  0  0  0  0  0  0
    3.7715   -1.7202   -2.6834 H   0  0  0  0  0  0  0  0  0  0  0  0
    6.3752   -1.8726   -2.8624 H   0  0  0  0  0  0  0  0  0  0  0  0
    8.5130   -1.7067   -2.2613 H   0  0  0  0  0  0  0  0  0  0  0  0
    2.5990   -0.3189    1.7857 H   0  0  0  0  0  0  0  0  0  0  0  0
    3.6167    1.8789    1.1911 H   0  0  0  0  0  0  0  0  0  0  0  0
    5.1515    1.3748    1.9101 H   0  0  0  0  0  0  0  0  0  0  0  0
    3.7157    1.5612    2.9309 H   0  0  0  0  0  0  0  0  0  0  0  0
    4.0186   -2.1929    2.5923 H   0  0  0  0  0  0  0  0  0  0  0  0
    5.3846   -1.0859    2.7927 H   0  0  0  0  0  0  0  0  0  0  0  0
    3.9244   -0.8724    3.7700 H   0  0  0  0  0  0  0  0  0  0  0  0
    1.7610    1.2389   -0.6508 H   0  0  0  0  0  0  0  0  0  0  0  0
    0.7717    3.0225   -0.9653 H   0  0  0  0  0  0  0  0  0  0  0  0
   -0.5775    3.0091   -2.1330 H   0  0  0  0  0  0  0  0  0  0  0  0
   -0.3288    4.9536   -0.2150 H   0  0  0  0  0  0  0  0  0  0  0  0
   -3.0825    3.5781   -0.7175 H   0  0  0  0  0  0  0  0  0  0  0  0
   -2.8374    5.1510    0.1647 H   0  0  0  0  0  0  0  0  0  0  0  0
   -1.4123    3.9429    1.8935 H   0  0  0  0  0  0  0  0  0  0  0  0
   -2.2708    1.4662    1.1358 H   0  0  0  0  0  0  0  0  0  0  0  0
   -0.5791    1.7324    1.6455 H   0  0  0  0  0  0  0  0  0  0  0  0
  1  2  1  0
  2  3  1  0
  2  4  1  0
  2  5  1  0
  5  6  1  0
  6  7  2  0
  6  8  1  0
  8  9  2  0
  9 10  1  0
  9 11  1  0
 11 12  2  0
 12 13  1  0
 13 14  2  0
 14 15  1  0
  5 16  1  0
 16 17  1  0
 17 18  2  0
 18 19  1  0
 19 20  1  0
 20 21  2  0
 21 22  1  0
 22 23  1  0
 23 24  1  0
 24 25  2  0
 22 26  2  0
 26 27  1  0
 27 28  1  0
 28 29  1  0
 28 30  1  0
 19 31  2  0
 31 32  1  0
 32 33  1  0
 33 34  1  0
 34 35  1  0
 35 36  1  0
 36 37  1  0
 37 38  1  0
 14  8  1  0
 32 16  2  0
 38 33  1  0
 27 20  1  0
 37 35  1  0
 11 39  1  0
 12 40  1  0
 13 41  1  0
 17 42  1  0
 18 43  1  0
 21 44  1  0
 23 45  1  0
 24 46  1  0
 28 47  1  0
 29 48  1  0
 29 49  1  0
 29 50  1  0
 30 51  1  0
 30 52  1  0
 30 53  1  0
 31 54  1  0
 34 55  1  0
 34 56  1  0
 35 57  1  0
 36 58  1  0
 36 59  1  0
 37 60  1  0
 38 61  1  0
 38 62  1  0
M  ISO  3   1   2   3   2   4   2
M  END
>  <QED>  (112) 
0.453

>  <MW>  (112) 
499.0

$$$$
CHEMBL3609393
     RDKit          3D

 58 60  0  0  0  0  0  0  0  0999 V2000
    9.3596   -0.3837   -1.8899 C   0  0  0  0  0  0  0  0  0  0  0  0
    8.0840    0.4129   -1.7015 C   0  0  0  0  0  0  0  0  0  0  0  0
    6.6617   -0.6535   -1.5598 S   0  0  0  0  0  0  0  0  0  0  0  0
    6.7687   -1.4085   -0.3260 O   0  0  0  0  0  0  0  0  0  0  0  0
    6.4614   -1.3253   -2.8301 O   0  0  0  0  0  0  0  0  0  0  0  0
    5.3197    0.4970   -1.3561 C   0  0  0  0  0  0  0  0  0  0  0  0
    4.9878    0.9461   -0.0765 C   0  0  0  0  0  0  0  0  0  0  0  0
    3.9279    1.8394    0.0832 C   0  0  0  0  0  0  0  0  0  0  0  0
    3.1854    2.2704   -1.0278 C   0  0  0  0  0  0  0  0  0  0  0  0
    2.0307    3.2311   -0.8491 C   0  0  0  0  0  0  0  0  0  0  0  0
    0.9427    2.7350    0.0951 C   0  0  0  0  0  0  0  0  0  0  0  0
    0.5533    3.4453    1.0177 O   0  0  0  0  0  0  0  0  0  0  0  0
    0.4559    1.4813   -0.2382 N   0  0  0  0  0  0  0  0  0  0  0  0
   -0.5717    0.7579    0.4016 C   0  0  0  0  0  0  0  0  0  0  0  0
   -1.3299    1.2497    1.4616 C   0  0  0  0  0  0  0  0  0  0  0  0
   -2.3363    0.4651    2.0393 C   0  0  0  0  0  0  0  0  0  0  0  0
   -2.6135   -0.8312    1.5748 C   0  0  0  0  0  0  0  0  0  0  0  0
   -3.6789   -1.6153    2.2223 C   0  0  0  0  0  0  0  0  0  0  0  0
   -3.3440   -2.6714    3.0887 C   0  0  0  0  0  0  0  0  0  0  0  0
   -4.3346   -3.4203    3.7284 C   0  0  0  0  0  0  0  0  0  0  0  0
   -5.6780   -3.1180    3.5231 C   0  0  0  0  0  0  0  0  0  0  0  0
   -6.0331   -2.0726    2.6721 C   0  0  0  0  0  0  0  0  0  0  0  0
   -5.0422   -1.3395    2.0099 C   0  0  0  0  0  0  0  0  0  0  0  0
   -5.3850   -0.2809    1.2056 O   0  0  0  0  0  0  0  0  0  0  0  0
   -6.1817   -0.6567    0.0711 C   0  0  0  0  0  0  0  0  0  0  0  0
   -7.4921    0.1206    0.1340 C   0  0  0  0  0  0  0  0  0  0  0  0
   -5.4038   -0.2841   -1.1873 C   0  0  0  0  0  0  0  0  0  0  0  0
   -1.8463   -1.3150    0.5026 C   0  0  0  0  0  0  0  0  0  0  0  0
   -2.1097   -2.8880   -0.1743 Cl  0  0  0  0  0  0  0  0  0  0  0  0
   -0.8390   -0.5296   -0.0755 C   0  0  0  0  0  0  0  0  0  0  0  0
    3.5290    1.8042   -2.3059 C   0  0  0  0  0  0  0  0  0  0  0  0
    4.5900    0.9127   -2.4718 C   0  0  0  0  0  0  0  0  0  0  0  0
    9.5330   -1.0564   -1.0439 H   0  0  0  0  0  0  0  0  0  0  0  0
   10.2191    0.2884   -1.9738 H   0  0  0  0  0  0  0  0  0  0  0  0
    9.3130   -0.9939   -2.7975 H   0  0  0  0  0  0  0  0  0  0  0  0
    7.9196    1.0742   -2.5574 H   0  0  0  0  0  0  0  0  0  0  0  0
    8.1430    1.0125   -0.7883 H   0  0  0  0  0  0  0  0  0  0  0  0
    5.5391    0.6044    0.7974 H   0  0  0  0  0  0  0  0  0  0  0  0
    3.6771    2.1904    1.0841 H   0  0  0  0  0  0  0  0  0  0  0  0
    1.5542    3.4547   -1.8114 H   0  0  0  0  0  0  0  0  0  0  0  0
    2.4261    4.1785   -0.4626 H   0  0  0  0  0  0  0  0  0  0  0  0
    0.9303    1.0013   -0.9946 H   0  0  0  0  0  0  0  0  0  0  0  0
   -1.1737    2.2448    1.8667 H   0  0  0  0  0  0  0  0  0  0  0  0
   -2.9164    0.8801    2.8628 H   0  0  0  0  0  0  0  0  0  0  0  0
   -2.2989   -2.9142    3.2717 H   0  0  0  0  0  0  0  0  0  0  0  0
   -4.0543   -4.2330    4.3938 H   0  0  0  0  0  0  0  0  0  0  0  0
   -6.4488   -3.6901    4.0329 H   0  0  0  0  0  0  0  0  0  0  0  0
   -7.0819   -1.8259    2.5399 H   0  0  0  0  0  0  0  0  0  0  0  0
   -6.3960   -1.7332    0.0414 H   0  0  0  0  0  0  0  0  0  0  0  0
   -8.0456   -0.1275    1.0454 H   0  0  0  0  0  0  0  0  0  0  0  0
   -8.1276   -0.1025   -0.7285 H   0  0  0  0  0  0  0  0  0  0  0  0
   -7.3075    1.2002    0.1641 H   0  0  0  0  0  0  0  0  0  0  0  0
   -5.1328    0.7775   -1.1838 H   0  0  0  0  0  0  0  0  0  0  0  0
   -4.4671   -0.8475   -1.2387 H   0  0  0  0  0  0  0  0  0  0  0  0
   -5.9836   -0.4968   -2.0907 H   0  0  0  0  0  0  0  0  0  0  0  0
   -0.2660   -0.9384   -0.9038 H   0  0  0  0  0  0  0  0  0  0  0  0
    2.9720    2.1290   -3.1832 H   0  0  0  0  0  0  0  0  0  0  0  0
    4.8357    0.5480   -3.4673 H   0  0  0  0  0  0  0  0  0  0  0  0
  1  2  1  0
  2  3  1  0
  3  4  2  0
  3  5  2  0
  3  6  1  0
  6  7  1  0
  7  8  2  0
  8  9  1  0
  9 10  1  0
 10 11  1  0
 11 12  2  0
 11 13  1  0
 13 14  1  0
 14 15  1  0
 15 16  2  0
 16 17  1  0
 17 18  1  0
 18 19  2  0
 19 20  1  0
 20 21  2  0
 21 22  1  0
 22 23  2  0
 23 24  1  0
 24 25  1  0
 25 26  1  0
 25 27  1  0
 17 28  2  0
 28 29  1  0
 28 30  1  0
  9 31  2  0
 31 32  1  0
 32  6  2  0
 30 14  2  0
 23 18  1  0
  1 33  1  0
  1 34  1  0
  1 35  1  0
  2 36  1  0
  2 37  1  0
  7 38  1  0
  8 39  1  0
 10 40  1  0
 10 41  1  0
 13 42  1  0
 15 43  1  0
 16 44  1  0
 19 45  1  0
 20 46  1  0
 21 47  1  0
 22 48  1  0
 25 49  1  0
 26 50  1  0
 26 51  1  0
 26 52  1  0
 27 53  1  0
 27 54  1  0
 27 55  1  0
 30 56  1  0
 31 57  1  0
 32 58  1  0
M  END
>  <QED>  (113) 
0.452

>  <MW>  (113) 
472.0

$$$$
CHEMBL3263710
     RDKit          3D

 61 63  0  0  0  0  0  0  0  0999 V2000
   -2.4163   -2.7168    2.1155 C   0  0  0  0  0  0  0  0  0  0  0  0
   -3.3364   -1.7660    1.3466 C   0  0  0  0  0  0  0  0  0  0  0  0
   -4.3494   -2.5667    0.5280 C   0  0  0  0  0  0  0  0  0  0  0  0
   -2.5538   -0.6994    0.5470 C   0  0  0  0  0  0  0  0  0  0  0  0
   -2.4007   -1.0286   -0.8972 N   0  0  0  0  0  0  0  0  0  0  0  0
   -1.2818   -1.9691   -1.2081 C   0  0  0  0  0  0  0  0  0  0  0  0
    0.1265   -1.4807   -0.9444 C   0  0  0  0  0  0  0  0  0  0  0  0
    0.7974   -1.8171    0.2385 C   0  0  0  0  0  0  0  0  0  0  0  0
    2.0986   -1.3617    0.4808 C   0  0  0  0  0  0  0  0  0  0  0  0
    2.7720   -0.5593   -0.4520 C   0  0  0  0  0  0  0  0  0  0  0  0
    4.1367   -0.0708   -0.1927 C   0  0  0  0  0  0  0  0  0  0  0  0
    4.4462    1.2972   -0.2999 C   0  0  0  0  0  0  0  0  0  0  0  0
    5.7394    1.7677   -0.0560 C   0  0  0  0  0  0  0  0  0  0  0  0
    6.7387    0.8657    0.3101 C   0  0  0  0  0  0  0  0  0  0  0  0
    8.3852    1.4588    0.6144 S   0  0  0  0  0  0  0  0  0  0  0  0
    8.3452    1.8983    2.3322 C   0  0  0  0  0  0  0  0  0  0  0  0
    9.2930    0.3379    0.4592 O   0  0  0  0  0  0  0  0  0  0  0  0
    8.5635    2.6730   -0.1588 O   0  0  0  0  0  0  0  0  0  0  0  0
    6.4655   -0.4989    0.4074 C   0  0  0  0  0  0  0  0  0  0  0  0
    5.1687   -0.9586    0.1610 C   0  0  0  0  0  0  0  0  0  0  0  0
    2.1006   -0.2363   -1.6399 C   0  0  0  0  0  0  0  0  0  0  0  0
    0.8005   -0.6924   -1.8845 C   0  0  0  0  0  0  0  0  0  0  0  0
   -2.5706    0.2605   -2.0003 S   0  0  0  0  0  0  0  0  0  0  0  0
   -1.8176    1.3897   -1.4969 O   0  0  0  0  0  0  0  0  0  0  0  0
   -2.2628   -0.2728   -3.3161 O   0  0  0  0  0  0  0  0  0  0  0  0
   -4.3400    0.6199   -2.0365 C   0  0  0  0  0  0  0  0  0  0  0  0
   -4.8477    1.4388   -0.8774 C   0  0  0  0  0  0  0  0  0  0  0  0
   -4.3779    2.7367   -0.6277 C   0  0  0  0  0  0  0  0  0  0  0  0
   -4.8844    3.4894    0.4341 C   0  0  0  0  0  0  0  0  0  0  0  0
   -5.8855    2.9661    1.2475 C   0  0  0  0  0  0  0  0  0  0  0  0
   -6.3895    1.6942    0.9921 C   0  0  0  0  0  0  0  0  0  0  0  0
   -5.8821    0.9409   -0.0686 C   0  0  0  0  0  0  0  0  0  0  0  0
   -1.6894   -2.1598    2.7158 H   0  0  0  0  0  0  0  0  0  0  0  0
   -1.8711   -3.3903    1.4500 H   0  0  0  0  0  0  0  0  0  0  0  0
   -3.0001   -3.3398    2.8024 H   0  0  0  0  0  0  0  0  0  0  0  0
   -3.9014   -1.2176    2.1135 H   0  0  0  0  0  0  0  0  0  0  0  0
   -3.8584   -3.2417   -0.1803 H   0  0  0  0  0  0  0  0  0  0  0  0
   -4.9720   -3.1818    1.1872 H   0  0  0  0  0  0  0  0  0  0  0  0
   -5.0157   -1.9105   -0.0348 H   0  0  0  0  0  0  0  0  0  0  0  0
   -1.5831   -0.4939    1.0086 H   0  0  0  0  0  0  0  0  0  0  0  0
   -3.1071    0.2365    0.6482 H   0  0  0  0  0  0  0  0  0  0  0  0
   -1.4458   -2.8971   -0.6497 H   0  0  0  0  0  0  0  0  0  0  0  0
   -1.3579   -2.2995   -2.2518 H   0  0  0  0  0  0  0  0  0  0  0  0
    0.3160   -2.4375    0.9892 H   0  0  0  0  0  0  0  0  0  0  0  0
    2.5807   -1.6301    1.4186 H   0  0  0  0  0  0  0  0  0  0  0  0
    3.6701    2.0108   -0.5741 H   0  0  0  0  0  0  0  0  0  0  0  0
    5.9526    2.8294   -0.1604 H   0  0  0  0  0  0  0  0  0  0  0  0
    8.1090    1.0106    2.9221 H   0  0  0  0  0  0  0  0  0  0  0  0
    9.3324    2.2751    2.6084 H   0  0  0  0  0  0  0  0  0  0  0  0
    7.5955    2.6769    2.4847 H   0  0  0  0  0  0  0  0  0  0  0  0
    7.2479   -1.2109    0.6612 H   0  0  0  0  0  0  0  0  0  0  0  0
    4.9689   -2.0271    0.2265 H   0  0  0  0  0  0  0  0  0  0  0  0
    2.5886    0.3729   -2.3985 H   0  0  0  0  0  0  0  0  0  0  0  0
    0.3218   -0.4201   -2.8235 H   0  0  0  0  0  0  0  0  0  0  0  0
   -4.8553   -0.3424   -2.1254 H   0  0  0  0  0  0  0  0  0  0  0  0
   -4.5251    1.1719   -2.9654 H   0  0  0  0  0  0  0  0  0  0  0  0
   -3.6057    3.1808   -1.2545 H   0  0  0  0  0  0  0  0  0  0  0  0
   -4.4974    4.4882    0.6211 H   0  0  0  0  0  0  0  0  0  0  0  0
   -6.2806    3.5549    2.0711 H   0  0  0  0  0  0  0  0  0  0  0  0
   -7.1853    1.2914    1.6136 H   0  0  0  0  0  0  0  0  0  0  0  0
   -6.3134   -0.0388   -0.2611 H   0  0  0  0  0  0  0  0  0  0  0  0
  1  2  1  0
  2  3  1  0
  2  4  1  0
  4  5  1  0
  5  6  1  0
  6  7  1  0
  7  8  1  0
  8  9  2  0
  9 10  1  0
 10 11  1  0
 11 12  1  0
 12 13  2  0
 13 14  1  0
 14 15  1  0
 15 16  1  0
 15 17  2  0
 15 18  2  0
 14 19  2  0
 19 20  1  0
 10 21  2  0
 21 22  1  0
  5 23  1  0
 23 24  2  0
 23 25  2  0
 23 26  1  0
 26 27  1  0
 27 28  2  0
 28 29  1  0
 29 30  2  0
 30 31  1  0
 31 32  2  0
 22  7  2  0
 32 27  1  0
 20 11  2  0
  1 33  1  0
  1 34  1  0
  1 35  1  0
  2 36  1  0
  3 37  1  0
  3 38  1  0
  3 39  1  0
  4 40  1  0
  4 41  1  0
  6 42  1  0
  6 43  1  0
  8 44  1  0
  9 45  1  0
 12 46  1  0
 13 47  1  0
 16 48  1  0
 16 49  1  0
 16 50  1  0
 19 51  1  0
 20 52  1  0
 21 53  1  0
 22 54  1  0
 26 55  1  0
 26 56  1  0
 28 57  1  0
 29 58  1  0
 30 59  1  0
 31 60  1  0
 32 61  1  0
M  END
>  <QED>  (114) 
0.452

>  <MW>  (114) 
471.6

$$$$
CHEMBL3361028
     RDKit          3D

 61 63  0  0  0  0  0  0  0  0999 V2000
   -4.8267   -3.0241   -1.4973 C   0  0  0  0  0  0  0  0  0  0  0  0
   -4.3575   -1.5688   -1.4187 C   0  0  0  0  0  0  0  0  0  0  0  0
   -5.5013   -0.6370   -1.8186 C   0  0  0  0  0  0  0  0  0  0  0  0
   -3.8253   -1.2743   -0.0056 C   0  0  0  0  0  0  0  0  0  0  0  0
   -3.2239    0.0822    0.0947 N   0  0  0  0  0  0  0  0  0  0  0  0
   -3.6922    0.8789    1.2571 C   0  0  0  0  0  0  0  0  0  0  0  0
   -5.0489    1.5038    1.0415 C   0  0  0  0  0  0  0  0  0  0  0  0
   -6.1708    1.0698    1.7613 C   0  0  0  0  0  0  0  0  0  0  0  0
   -7.4177    1.6611    1.5492 C   0  0  0  0  0  0  0  0  0  0  0  0
   -7.5547    2.6897    0.6185 C   0  0  0  0  0  0  0  0  0  0  0  0
   -6.4462    3.1292   -0.1022 C   0  0  0  0  0  0  0  0  0  0  0  0
   -5.1992    2.5404    0.1082 C   0  0  0  0  0  0  0  0  0  0  0  0
   -1.5739    0.2506   -0.3002 S   0  0  0  0  0  0  0  0  0  0  0  0
   -1.2994    1.6730   -0.3452 O   0  0  0  0  0  0  0  0  0  0  0  0
   -1.3070   -0.6005   -1.4410 O   0  0  0  0  0  0  0  0  0  0  0  0
   -0.7606   -0.4519    1.1499 C   0  0  0  0  0  0  0  0  0  0  0  0
    0.7334   -0.3638    0.9738 C   0  0  0  0  0  0  0  0  0  0  0  0
    1.4383   -1.3898    0.3333 C   0  0  0  0  0  0  0  0  0  0  0  0
    2.8241   -1.3025    0.1656 C   0  0  0  0  0  0  0  0  0  0  0  0
    3.5431   -0.1897    0.6283 C   0  0  0  0  0  0  0  0  0  0  0  0
    5.0008   -0.0960    0.4426 C   0  0  0  0  0  0  0  0  0  0  0  0
    5.8525   -1.1291    0.8735 C   0  0  0  0  0  0  0  0  0  0  0  0
    7.2368   -1.0444    0.7006 C   0  0  0  0  0  0  0  0  0  0  0  0
    7.7823    0.0802    0.0809 C   0  0  0  0  0  0  0  0  0  0  0  0
    9.5413    0.2015   -0.1353 S   0  0  0  0  0  0  0  0  0  0  0  0
    9.7934   -0.4382   -1.7703 C   0  0  0  0  0  0  0  0  0  0  0  0
   10.1641   -0.7107    0.8052 O   0  0  0  0  0  0  0  0  0  0  0  0
    9.8846    1.6108   -0.1421 O   0  0  0  0  0  0  0  0  0  0  0  0
    6.9637    1.1278   -0.3418 C   0  0  0  0  0  0  0  0  0  0  0  0
    5.5808    1.0326   -0.1643 C   0  0  0  0  0  0  0  0  0  0  0  0
    2.8266    0.8353    1.2651 C   0  0  0  0  0  0  0  0  0  0  0  0
    1.4409    0.7525    1.4353 C   0  0  0  0  0  0  0  0  0  0  0  0
   -5.6466   -3.2161   -0.7968 H   0  0  0  0  0  0  0  0  0  0  0  0
   -4.0073   -3.7102   -1.2582 H   0  0  0  0  0  0  0  0  0  0  0  0
   -5.1791   -3.2660   -2.5057 H   0  0  0  0  0  0  0  0  0  0  0  0
   -3.5554   -1.4417   -2.1534 H   0  0  0  0  0  0  0  0  0  0  0  0
   -6.3188   -0.6719   -1.0911 H   0  0  0  0  0  0  0  0  0  0  0  0
   -5.9087   -0.9193   -2.7955 H   0  0  0  0  0  0  0  0  0  0  0  0
   -5.1531    0.3962   -1.9019 H   0  0  0  0  0  0  0  0  0  0  0  0
   -3.0790   -2.0250    0.2780 H   0  0  0  0  0  0  0  0  0  0  0  0
   -4.6404   -1.3856    0.7198 H   0  0  0  0  0  0  0  0  0  0  0  0
   -3.7016    0.2423    2.1512 H   0  0  0  0  0  0  0  0  0  0  0  0
   -2.9975    1.6947    1.4889 H   0  0  0  0  0  0  0  0  0  0  0  0
   -6.0850    0.2678    2.4901 H   0  0  0  0  0  0  0  0  0  0  0  0
   -8.2844    1.3192    2.1091 H   0  0  0  0  0  0  0  0  0  0  0  0
   -8.5261    3.1479    0.4524 H   0  0  0  0  0  0  0  0  0  0  0  0
   -6.5516    3.9275   -0.8323 H   0  0  0  0  0  0  0  0  0  0  0  0
   -4.3402    2.8823   -0.4681 H   0  0  0  0  0  0  0  0  0  0  0  0
   -1.0745   -1.4935    1.2579 H   0  0  0  0  0  0  0  0  0  0  0  0
   -1.0779    0.1095    2.0332 H   0  0  0  0  0  0  0  0  0  0  0  0
    0.9157   -2.2604   -0.0593 H   0  0  0  0  0  0  0  0  0  0  0  0
    3.3394   -2.1086   -0.3533 H   0  0  0  0  0  0  0  0  0  0  0  0
    5.4378   -2.0060    1.3682 H   0  0  0  0  0  0  0  0  0  0  0  0
    7.8728   -1.8508    1.0595 H   0  0  0  0  0  0  0  0  0  0  0  0
   10.8634   -0.4026   -1.9865 H   0  0  0  0  0  0  0  0  0  0  0  0
    9.2502    0.1830   -2.4849 H   0  0  0  0  0  0  0  0  0  0  0  0
    9.4418   -1.4710   -1.8073 H   0  0  0  0  0  0  0  0  0  0  0  0
    7.3856    2.0185   -0.8026 H   0  0  0  0  0  0  0  0  0  0  0  0
    4.9493    1.8499   -0.5104 H   0  0  0  0  0  0  0  0  0  0  0  0
    3.3477    1.7144    1.6403 H   0  0  0  0  0  0  0  0  0  0  0  0
    0.9224    1.5767    1.9219 H   0  0  0  0  0  0  0  0  0  0  0  0
  1  2  1  0
  2  3  1  0
  2  4  1  0
  4  5  1  0
  5  6  1  0
  6  7  1  0
  7  8  2  0
  8  9  1  0
  9 10  2  0
 10 11  1  0
 11 12  2  0
  5 13  1  0
 13 14  2  0
 13 15  2  0
 13 16  1  0
 16 17  1  0
 17 18  1  0
 18 19  2  0
 19 20  1  0
 20 21  1  0
 21 22  1  0
 22 23  2  0
 23 24  1  0
 24 25  1  0
 25 26  1  0
 25 27  2  0
 25 28  2  0
 24 29  2  0
 29 30  1  0
 20 31  2  0
 31 32  1  0
 12  7  1  0
 32 17  2  0
 30 21  2  0
  1 33  1  0
  1 34  1  0
  1 35  1  0
  2 36  1  0
  3 37  1  0
  3 38  1  0
  3 39  1  0
  4 40  1  0
  4 41  1  0
  6 42  1  0
  6 43  1  0
  8 44  1  0
  9 45  1  0
 10 46  1  0
 11 47  1  0
 12 48  1  0
 16 49  1  0
 16 50  1  0
 18 51  1  0
 19 52  1  0
 22 53  1  0
 23 54  1  0
 26 55  1  0
 26 56  1  0
 26 57  1  0
 29 58  1  0
 30 59  1  0
 31 60  1  0
 32 61  1  0
M  END
>  <QED>  (115) 
0.452

>  <MW>  (115) 
471.6

$$$$
CHEMBL3263714
     RDKit          3D

 63 65  0  0  0  0  0  0  0  0999 V2000
   -1.7000   -2.9041   -0.5242 C   0  0  0  0  0  0  0  0  0  0  0  0
   -1.4141   -2.0564    0.7163 C   0  0  0  0  0  0  0  0  0  0  0  0
   -1.3098   -2.9590    1.9479 C   0  0  0  0  0  0  0  0  0  0  0  0
   -2.4896   -0.9816    0.9487 C   0  0  0  0  0  0  0  0  0  0  0  0
   -2.5351   -0.0057   -0.1740 N   0  0  0  0  0  0  0  0  0  0  0  0
   -1.8323    1.2768    0.0798 C   0  0  0  0  0  0  0  0  0  0  0  0
   -0.3300    1.1541    0.0009 C   0  0  0  0  0  0  0  0  0  0  0  0
    0.2786    0.7814   -1.2046 C   0  0  0  0  0  0  0  0  0  0  0  0
    1.6680    0.6560   -1.2905 C   0  0  0  0  0  0  0  0  0  0  0  0
    2.4865    0.9030   -0.1777 C   0  0  0  0  0  0  0  0  0  0  0  0
    3.9489    0.7640   -0.2658 C   0  0  0  0  0  0  0  0  0  0  0  0
    4.8001    1.8180    0.1069 C   0  0  0  0  0  0  0  0  0  0  0  0
    6.1899    1.6847    0.0298 C   0  0  0  0  0  0  0  0  0  0  0  0
    6.7464    0.4938   -0.4304 C   0  0  0  0  0  0  0  0  0  0  0  0
    8.1626    0.3362   -0.4642 N   0  0  0  0  0  0  0  0  0  0  0  0
    8.8979   -0.2990    0.9238 S   0  0  0  0  0  0  0  0  0  0  0  0
    9.1308   -1.9967    0.4462 C   0  0  0  0  0  0  0  0  0  0  0  0
    7.9918   -0.2428    2.0483 O   0  0  0  0  0  0  0  0  0  0  0  0
   10.2052    0.3215    0.9796 O   0  0  0  0  0  0  0  0  0  0  0  0
    5.9244   -0.5697   -0.7910 C   0  0  0  0  0  0  0  0  0  0  0  0
    4.5350   -0.4311   -0.7160 C   0  0  0  0  0  0  0  0  0  0  0  0
    1.8676    1.2817    1.0246 C   0  0  0  0  0  0  0  0  0  0  0  0
    0.4773    1.4068    1.1155 C   0  0  0  0  0  0  0  0  0  0  0  0
   -3.9916    0.1018   -1.0543 S   0  0  0  0  0  0  0  0  0  0  0  0
   -4.4733   -1.2503   -1.2497 O   0  0  0  0  0  0  0  0  0  0  0  0
   -3.7381    0.9779   -2.1802 O   0  0  0  0  0  0  0  0  0  0  0  0
   -5.0677    0.9476    0.1199 C   0  0  0  0  0  0  0  0  0  0  0  0
   -6.4327    1.1269   -0.4908 C   0  0  0  0  0  0  0  0  0  0  0  0
   -6.7339    2.2742   -1.2390 C   0  0  0  0  0  0  0  0  0  0  0  0
   -7.9992    2.4384   -1.8044 C   0  0  0  0  0  0  0  0  0  0  0  0
   -8.9744    1.4586   -1.6312 C   0  0  0  0  0  0  0  0  0  0  0  0
   -8.6844    0.3111   -0.8963 C   0  0  0  0  0  0  0  0  0  0  0  0
   -7.4200    0.1440   -0.3295 C   0  0  0  0  0  0  0  0  0  0  0  0
   -1.6982   -2.2924   -1.4319 H   0  0  0  0  0  0  0  0  0  0  0  0
   -2.6712   -3.4045   -0.4489 H   0  0  0  0  0  0  0  0  0  0  0  0
   -0.9333   -3.6762   -0.6500 H   0  0  0  0  0  0  0  0  0  0  0  0
   -0.4389   -1.5788    0.5771 H   0  0  0  0  0  0  0  0  0  0  0  0
   -1.0591   -2.3733    2.8387 H   0  0  0  0  0  0  0  0  0  0  0  0
   -2.2529   -3.4821    2.1393 H   0  0  0  0  0  0  0  0  0  0  0  0
   -0.5259   -3.7119    1.8134 H   0  0  0  0  0  0  0  0  0  0  0  0
   -2.2927   -0.4516    1.8888 H   0  0  0  0  0  0  0  0  0  0  0  0
   -3.4640   -1.4650    1.0846 H   0  0  0  0  0  0  0  0  0  0  0  0
   -2.1252    2.0429   -0.6471 H   0  0  0  0  0  0  0  0  0  0  0  0
   -2.1347    1.6678    1.0593 H   0  0  0  0  0  0  0  0  0  0  0  0
   -0.3333    0.5763   -2.0823 H   0  0  0  0  0  0  0  0  0  0  0  0
    2.1089    0.3683   -2.2430 H   0  0  0  0  0  0  0  0  0  0  0  0
    4.3819    2.7581    0.4616 H   0  0  0  0  0  0  0  0  0  0  0  0
    6.8223    2.5097    0.3446 H   0  0  0  0  0  0  0  0  0  0  0  0
    8.6797    1.1700   -0.7511 H   0  0  0  0  0  0  0  0  0  0  0  0
    9.7039   -2.0297   -0.4822 H   0  0  0  0  0  0  0  0  0  0  0  0
    8.1570   -2.4731    0.3260 H   0  0  0  0  0  0  0  0  0  0  0  0
    9.6883   -2.4950    1.2424 H   0  0  0  0  0  0  0  0  0  0  0  0
    6.3488   -1.5049   -1.1419 H   0  0  0  0  0  0  0  0  0  0  0  0
    3.9062   -1.2736   -0.9985 H   0  0  0  0  0  0  0  0  0  0  0  0
    2.4711    1.4686    1.9112 H   0  0  0  0  0  0  0  0  0  0  0  0
    0.0365    1.6952    2.0667 H   0  0  0  0  0  0  0  0  0  0  0  0
   -4.6222    1.9172    0.3610 H   0  0  0  0  0  0  0  0  0  0  0  0
   -5.1266    0.3464    1.0318 H   0  0  0  0  0  0  0  0  0  0  0  0
   -5.9820    3.0444   -1.4005 H   0  0  0  0  0  0  0  0  0  0  0  0
   -8.2214    3.3277   -2.3889 H   0  0  0  0  0  0  0  0  0  0  0  0
   -9.9571    1.5844   -2.0779 H   0  0  0  0  0  0  0  0  0  0  0  0
   -9.4410   -0.4595   -0.7723 H   0  0  0  0  0  0  0  0  0  0  0  0
   -7.2094   -0.7676    0.2267 H   0  0  0  0  0  0  0  0  0  0  0  0
  1  2  1  0
  2  3  1  0
  2  4  1  0
  4  5  1  0
  5  6  1  0
  6  7  1  0
  7  8  1  0
  8  9  2  0
  9 10  1  0
 10 11  1  0
 11 12  1  0
 12 13  2  0
 13 14  1  0
 14 15  1  0
 15 16  1  0
 16 17  1  0
 16 18  2  0
 16 19  2  0
 14 20  2  0
 20 21  1  0
 10 22  2  0
 22 23  1  0
  5 24  1  0
 24 25  2  0
 24 26  2  0
 24 27  1  0
 27 28  1  0
 28 29  2  0
 29 30  1  0
 30 31  2  0
 31 32  1  0
 32 33  2  0
 23  7  2  0
 33 28  1  0
 21 11  2  0
  1 34  1  0
  1 35  1  0
  1 36  1  0
  2 37  1  0
  3 38  1  0
  3 39  1  0
  3 40  1  0
  4 41  1  0
  4 42  1  0
  6 43  1  0
  6 44  1  0
  8 45  1  0
  9 46  1  0
 12 47  1  0
 13 48  1  0
 15 49  1  0
 17 50  1  0
 17 51  1  0
 17 52  1  0
 20 53  1  0
 21 54  1  0
 22 55  1  0
 23 56  1  0
 27 57  1  0
 27 58  1  0
 29 59  1  0
 30 60  1  0
 31 61  1  0
 32 62  1  0
 33 63  1  0
M  END
>  <QED>  (116) 
0.45

>  <MW>  (116) 
486.7

$$$$
CHEMBL3596279
     RDKit          3D

 47 51  0  0  0  0  0  0  0  0999 V2000
    7.0783   -1.7313   -2.3919 O   0  0  0  0  0  0  0  0  0  0  0  0
    6.3110   -0.7858   -2.4339 C   0  0  0  0  0  0  0  0  0  0  0  0
    6.5050    0.2390   -3.2809 O   0  0  0  0  0  0  0  0  0  0  0  0
    5.0420   -0.6836   -1.6869 C   0  0  0  0  0  0  0  0  0  0  0  0
    4.2885   -1.8549   -1.5439 C   0  0  0  0  0  0  0  0  0  0  0  0
    3.0702   -1.8338   -0.8550 C   0  0  0  0  0  0  0  0  0  0  0  0
    2.5901   -0.6471   -0.2871 C   0  0  0  0  0  0  0  0  0  0  0  0
    1.3234   -0.5691    0.4332 C   0  0  0  0  0  0  0  0  0  0  0  0
    0.7704    0.6416    0.7843 N   0  0  0  0  0  0  0  0  0  0  0  0
   -0.3745    0.3773    1.3908 C   0  0  0  0  0  0  0  0  0  0  0  0
   -1.2665    1.4504    1.7989 C   0  0  0  0  0  0  0  0  0  0  0  0
   -0.8881    2.5513    2.1978 O   0  0  0  0  0  0  0  0  0  0  0  0
   -2.7290    1.2668    1.6572 C   0  0  0  0  0  0  0  0  0  0  0  0
   -3.5419    1.3062    2.8028 C   0  0  0  0  0  0  0  0  0  0  0  0
   -2.8981    1.4642    4.3993 Cl  0  0  0  0  0  0  0  0  0  0  0  0
   -4.9222    1.1400    2.6848 C   0  0  0  0  0  0  0  0  0  0  0  0
   -5.4921    0.9350    1.4328 C   0  0  0  0  0  0  0  0  0  0  0  0
   -4.6832    0.9048    0.2955 C   0  0  0  0  0  0  0  0  0  0  0  0
   -3.2882    1.0873    0.3677 C   0  0  0  0  0  0  0  0  0  0  0  0
   -2.4690    1.0724   -0.9092 C   0  0  0  0  0  0  0  0  0  0  0  0
   -2.8632    1.9514   -2.0763 C   0  0  0  0  0  0  0  0  0  0  0  0
   -1.6316    2.2723   -1.2895 C   0  0  0  0  0  0  0  0  0  0  0  0
   -0.5437   -0.9897    1.5254 N   0  0  0  0  0  0  0  0  0  0  0  0
   -1.5168   -1.7427    2.1824 C   0  0  0  0  0  0  0  0  0  0  0  0
   -1.4620   -3.0812    2.1561 C   0  0  0  0  0  0  0  0  0  0  0  0
   -0.3242   -3.6519    1.3909 C   0  0  0  0  0  0  0  0  0  0  0  0
    0.6026   -2.9771    0.7833 N   0  0  0  0  0  0  0  0  0  0  0  0
    0.5187   -1.6110    0.8645 C   0  0  0  0  0  0  0  0  0  0  0  0
    3.3643    0.5194   -0.4218 C   0  0  0  0  0  0  0  0  0  0  0  0
    4.5832    0.5012   -1.1079 C   0  0  0  0  0  0  0  0  0  0  0  0
    5.3294    1.6454   -1.1662 O   0  0  0  0  0  0  0  0  0  0  0  0
    7.3640    0.0417   -3.7042 H   0  0  0  0  0  0  0  0  0  0  0  0
    4.6442   -2.7893   -1.9739 H   0  0  0  0  0  0  0  0  0  0  0  0
    2.5090   -2.7612   -0.7775 H   0  0  0  0  0  0  0  0  0  0  0  0
   -5.5592    1.1630    3.5664 H   0  0  0  0  0  0  0  0  0  0  0  0
   -6.5681    0.8044    1.3377 H   0  0  0  0  0  0  0  0  0  0  0  0
   -5.1527    0.7507   -0.6762 H   0  0  0  0  0  0  0  0  0  0  0  0
   -2.0577    0.1009   -1.1827 H   0  0  0  0  0  0  0  0  0  0  0  0
   -3.7048    2.6278   -1.9777 H   0  0  0  0  0  0  0  0  0  0  0  0
   -2.7332    1.5548   -3.0772 H   0  0  0  0  0  0  0  0  0  0  0  0
   -0.6638    2.0849   -1.7433 H   0  0  0  0  0  0  0  0  0  0  0  0
   -1.6500    3.1580   -0.6629 H   0  0  0  0  0  0  0  0  0  0  0  0
   -2.2930   -1.2271    2.7270 H   0  0  0  0  0  0  0  0  0  0  0  0
   -2.1645   -3.7387    2.6470 H   0  0  0  0  0  0  0  0  0  0  0  0
   -0.2910   -4.7536    1.3537 H   0  0  0  0  0  0  0  0  0  0  0  0
    3.0077    1.4436    0.0293 H   0  0  0  0  0  0  0  0  0  0  0  0
    4.8303    2.3735   -0.7598 H   0  0  0  0  0  0  0  0  0  0  0  0
  1  2  2  0
  2  3  1  0
  2  4  1  0
  4  5  1  0
  5  6  2  0
  6  7  1  0
  7  8  1  0
  8  9  1  0
  9 10  2  0
 10 11  1  0
 11 12  2  0
 11 13  1  0
 13 14  2  0
 14 15  1  0
 14 16  1  0
 16 17  2  0
 17 18  1  0
 18 19  2  0
 19 20  1  0
 20 21  1  0
 21 22  1  0
 10 23  1  0
 23 24  1  0
 24 25  2  0
 25 26  1  0
 26 27  2  0
 27 28  1  0
  7 29  2  0
 29 30  1  0
 30 31  1  0
 30  4  2  0
 28  8  2  0
 19 13  1  0
 22 20  1  0
 28 23  1  0
  3 32  1  0
  5 33  1  0
  6 34  1  0
 16 35  1  0
 17 36  1  0
 18 37  1  0
 20 38  1  0
 21 39  1  0
 21 40  1  0
 22 41  1  0
 22 42  1  0
 24 43  1  0
 25 44  1  0
 26 45  1  0
 29 46  1  0
 31 47  1  0
M  END
>  <QED>  (117) 
0.447

>  <MW>  (117) 
433.9

$$$$
CHEMBL3598143
     RDKit          3D

 42 45  0  0  0  0  0  0  0  0999 V2000
    7.7828   -0.1931    0.3820 O   0  0  0  0  0  0  0  0  0  0  0  0
    6.9662   -1.0695    0.5975 C   0  0  0  0  0  0  0  0  0  0  0  0
    7.3496   -2.2874    1.0210 O   0  0  0  0  0  0  0  0  0  0  0  0
    5.4969   -0.9501    0.4390 C   0  0  0  0  0  0  0  0  0  0  0  0
    4.9713    0.2700    0.0057 C   0  0  0  0  0  0  0  0  0  0  0  0
    3.5894    0.4209   -0.1555 C   0  0  0  0  0  0  0  0  0  0  0  0
    2.7069   -0.6398    0.1085 C   0  0  0  0  0  0  0  0  0  0  0  0
    1.2738   -0.4295   -0.0716 C   0  0  0  0  0  0  0  0  0  0  0  0
    0.7483    0.8273   -0.2761 N   0  0  0  0  0  0  0  0  0  0  0  0
   -0.5617    0.6833   -0.3700 C   0  0  0  0  0  0  0  0  0  0  0  0
   -1.4303    1.8396   -0.5053 C   0  0  0  0  0  0  0  0  0  0  0  0
   -1.1331    2.8666   -1.1141 O   0  0  0  0  0  0  0  0  0  0  0  0
   -2.7753    1.8544    0.1168 C   0  0  0  0  0  0  0  0  0  0  0  0
   -2.9298    1.6961    1.5038 C   0  0  0  0  0  0  0  0  0  0  0  0
   -1.6029    1.4587    2.5828 Cl  0  0  0  0  0  0  0  0  0  0  0  0
   -4.2037    1.7566    2.0771 C   0  0  0  0  0  0  0  0  0  0  0  0
   -5.3231    1.9934    1.2831 C   0  0  0  0  0  0  0  0  0  0  0  0
   -5.1753    2.1714   -0.0908 C   0  0  0  0  0  0  0  0  0  0  0  0
   -3.9059    2.1021   -0.6951 C   0  0  0  0  0  0  0  0  0  0  0  0
   -3.7886    2.2801   -2.1923 C   0  0  0  0  0  0  0  0  0  0  0  0
   -4.9781    2.0588   -2.8263 F   0  0  0  0  0  0  0  0  0  0  0  0
   -2.9267    1.3888   -2.7546 F   0  0  0  0  0  0  0  0  0  0  0  0
   -3.4007    3.5221   -2.5688 F   0  0  0  0  0  0  0  0  0  0  0  0
   -0.9028   -0.6573   -0.3249 N   0  0  0  0  0  0  0  0  0  0  0  0
   -2.1257   -1.3065   -0.4988 C   0  0  0  0  0  0  0  0  0  0  0  0
   -2.1974   -2.6407   -0.3976 C   0  0  0  0  0  0  0  0  0  0  0  0
   -0.9125   -3.3212   -0.0937 C   0  0  0  0  0  0  0  0  0  0  0  0
    0.2404   -2.7455    0.0551 N   0  0  0  0  0  0  0  0  0  0  0  0
    0.2666   -1.3813   -0.0834 C   0  0  0  0  0  0  0  0  0  0  0  0
    3.2473   -1.8563    0.5469 C   0  0  0  0  0  0  0  0  0  0  0  0
    4.6302   -2.0135    0.7104 C   0  0  0  0  0  0  0  0  0  0  0  0
    8.3253   -2.2151    1.0772 H   0  0  0  0  0  0  0  0  0  0  0  0
    5.6289    1.1100   -0.2085 H   0  0  0  0  0  0  0  0  0  0  0  0
    3.2015    1.3815   -0.4933 H   0  0  0  0  0  0  0  0  0  0  0  0
   -4.3295    1.6387    3.1521 H   0  0  0  0  0  0  0  0  0  0  0  0
   -6.3102    2.0529    1.7383 H   0  0  0  0  0  0  0  0  0  0  0  0
   -6.0619    2.3679   -0.6956 H   0  0  0  0  0  0  0  0  0  0  0  0
   -2.9979   -0.7175   -0.7383 H   0  0  0  0  0  0  0  0  0  0  0  0
   -3.0965   -3.2247   -0.5295 H   0  0  0  0  0  0  0  0  0  0  0  0
   -0.9763   -4.4176    0.0074 H   0  0  0  0  0  0  0  0  0  0  0  0
    2.6058   -2.7030    0.7758 H   0  0  0  0  0  0  0  0  0  0  0  0
    5.0149   -2.9714    1.0515 H   0  0  0  0  0  0  0  0  0  0  0  0
  1  2  2  0
  2  3  1  0
  2  4  1  0
  4  5  1  0
  5  6  2  0
  6  7  1  0
  7  8  1  0
  8  9  1  0
  9 10  2  0
 10 11  1  0
 11 12  2  0
 11 13  1  0
 13 14  2  0
 14 15  1  0
 14 16  1  0
 16 17  2  0
 17 18  1  0
 18 19  2  0
 19 20  1  0
 20 21  1  0
 20 22  1  0
 20 23  1  0
 10 24  1  0
 24 25  1  0
 25 26  2  0
 26 27  1  0
 27 28  2  0
 28 29  1  0
  7 30  2  0
 30 31  1  0
 31  4  2  0
 29  8  2  0
 19 13  1  0
 29 24  1  0
  3 32  1  0
  5 33  1  0
  6 34  1  0
 16 35  1  0
 17 36  1  0
 18 37  1  0
 25 38  1  0
 26 39  1  0
 27 40  1  0
 30 41  1  0
 31 42  1  0
M  END
>  <QED>  (118) 
0.447

>  <MW>  (118) 
445.8

$$$$
CHEMBL3596638
     RDKit          3D

 57 59  0  0  0  0  0  0  0  0999 V2000
    0.2995    3.7026   -1.8030 C   0  0  0  0  0  0  0  0  0  0  0  0
   -0.3013    2.3272   -2.0456 C   0  0  0  0  0  0  0  0  0  0  0  0
   -0.8039    1.6651   -0.8391 N   0  0  0  0  0  0  0  0  0  0  0  0
   -1.7784    2.3572    0.0206 C   0  0  0  0  0  0  0  0  0  0  0  0
   -1.1389    3.0520    1.2166 C   0  0  0  0  0  0  0  0  0  0  0  0
   -0.0740    0.6228   -0.2476 C   0  0  0  0  0  0  0  0  0  0  0  0
    1.3101    0.7859   -0.0260 C   0  0  0  0  0  0  0  0  0  0  0  0
    2.0740   -0.1324    0.7126 C   0  0  0  0  0  0  0  0  0  0  0  0
    3.5124    0.0837    0.9345 C   0  0  0  0  0  0  0  0  0  0  0  0
    4.4333   -0.7606    0.2789 C   0  0  0  0  0  0  0  0  0  0  0  0
    5.8155   -0.5960    0.4444 C   0  0  0  0  0  0  0  0  0  0  0  0
    6.8072   -1.4707   -0.2373 C   0  0  0  0  0  0  0  0  0  0  0  0
    6.4010   -2.1409   -1.3575 N   0  0  0  0  0  0  0  0  0  0  0  0
    7.9598   -1.5666    0.1645 O   0  0  0  0  0  0  0  0  0  0  0  0
    6.2922    0.4073    1.2936 C   0  0  0  0  0  0  0  0  0  0  0  0
    5.3979    1.2505    1.9541 C   0  0  0  0  0  0  0  0  0  0  0  0
    4.0192    1.0942    1.7755 C   0  0  0  0  0  0  0  0  0  0  0  0
    2.9813    2.1720    2.6454 Cl  0  0  0  0  0  0  0  0  0  0  0  0
    1.4321   -1.2575    1.2306 C   0  0  0  0  0  0  0  0  0  0  0  0
    0.0724   -1.4694    0.9952 C   0  0  0  0  0  0  0  0  0  0  0  0
   -0.6937   -0.5613    0.2422 C   0  0  0  0  0  0  0  0  0  0  0  0
   -2.0501   -0.9247   -0.0925 N   0  0  0  0  0  0  0  0  0  0  0  0
   -2.5019   -0.6297   -1.4539 C   0  0  0  0  0  0  0  0  0  0  0  0
   -2.8728   -1.5625    0.8477 C   0  0  0  0  0  0  0  0  0  0  0  0
   -2.5995   -1.7902    2.0247 O   0  0  0  0  0  0  0  0  0  0  0  0
   -4.2115   -1.9882    0.4236 C   0  0  0  0  0  0  0  0  0  0  0  0
   -4.3589   -3.2793   -0.0803 C   0  0  0  0  0  0  0  0  0  0  0  0
   -3.2949   -4.0812   -0.2305 F   0  0  0  0  0  0  0  0  0  0  0  0
   -5.6111   -3.7553   -0.4608 C   0  0  0  0  0  0  0  0  0  0  0  0
   -6.7311   -2.9363   -0.3259 C   0  0  0  0  0  0  0  0  0  0  0  0
   -6.5911   -1.6451    0.1906 C   0  0  0  0  0  0  0  0  0  0  0  0
   -5.3313   -1.1688    0.5725 C   0  0  0  0  0  0  0  0  0  0  0  0
   -5.2301    0.4342    1.2017 Cl  0  0  0  0  0  0  0  0  0  0  0  0
    0.7033    4.1028   -2.7388 H   0  0  0  0  0  0  0  0  0  0  0  0
    1.1111    3.6772   -1.0715 H   0  0  0  0  0  0  0  0  0  0  0  0
   -0.4550    4.4100   -1.4450 H   0  0  0  0  0  0  0  0  0  0  0  0
   -1.1401    2.4353   -2.7443 H   0  0  0  0  0  0  0  0  0  0  0  0
    0.4304    1.6922   -2.5610 H   0  0  0  0  0  0  0  0  0  0  0  0
   -2.3269    3.0970   -0.5748 H   0  0  0  0  0  0  0  0  0  0  0  0
   -2.5349    1.6591    0.3891 H   0  0  0  0  0  0  0  0  0  0  0  0
   -0.6880    2.3304    1.9054 H   0  0  0  0  0  0  0  0  0  0  0  0
   -1.8991    3.6084    1.7743 H   0  0  0  0  0  0  0  0  0  0  0  0
   -0.3603    3.7571    0.9143 H   0  0  0  0  0  0  0  0  0  0  0  0
    1.8044    1.6822   -0.3888 H   0  0  0  0  0  0  0  0  0  0  0  0
    4.0486   -1.5615   -0.3484 H   0  0  0  0  0  0  0  0  0  0  0  0
    7.1266   -2.6343   -1.8629 H   0  0  0  0  0  0  0  0  0  0  0  0
    5.5674   -1.8943   -1.8705 H   0  0  0  0  0  0  0  0  0  0  0  0
    7.3631    0.5349    1.4441 H   0  0  0  0  0  0  0  0  0  0  0  0
    5.7829    2.0256    2.6129 H   0  0  0  0  0  0  0  0  0  0  0  0
    1.9830   -1.9882    1.8191 H   0  0  0  0  0  0  0  0  0  0  0  0
   -0.3705   -2.3856    1.3789 H   0  0  0  0  0  0  0  0  0  0  0  0
   -3.0860   -1.4666   -1.8467 H   0  0  0  0  0  0  0  0  0  0  0  0
   -1.6606   -0.4931   -2.1397 H   0  0  0  0  0  0  0  0  0  0  0  0
   -3.1432    0.2554   -1.4441 H   0  0  0  0  0  0  0  0  0  0  0  0
   -5.7045   -4.7632   -0.8552 H   0  0  0  0  0  0  0  0  0  0  0  0
   -7.7133   -3.3034   -0.6160 H   0  0  0  0  0  0  0  0  0  0  0  0
   -7.4719   -1.0153    0.3002 H   0  0  0  0  0  0  0  0  0  0  0  0
  1  2  1  0
  2  3  1  0
  3  4  1  0
  4  5  1  0
  3  6  1  0
  6  7  1  0
  7  8  2  0
  8  9  1  0
  9 10  1  0
 10 11  2  0
 11 12  1  0
 12 13  1  0
 12 14  2  0
 11 15  1  0
 15 16  2  0
 16 17  1  0
 17 18  1  0
  8 19  1  0
 19 20  2  0
 20 21  1  0
 21 22  1  0
 22 23  1  0
 22 24  1  0
 24 25  2  0
 24 26  1  0
 26 27  2  0
 27 28  1  0
 27 29  1  0
 29 30  2  0
 30 31  1  0
 31 32  2  0
 32 33  1  0
 21  6  2  0
 32 26  1  0
 17  9  2  0
  1 34  1  0
  1 35  1  0
  1 36  1  0
  2 37  1  0
  2 38  1  0
  4 39  1  0
  4 40  1  0
  5 41  1  0
  5 42  1  0
  5 43  1  0
  7 44  1  0
 10 45  1  0
 13 46  1  0
 13 47  1  0
 15 48  1  0
 16 49  1  0
 19 50  1  0
 20 51  1  0
 23 52  1  0
 23 53  1  0
 23 54  1  0
 29 55  1  0
 30 56  1  0
 31 57  1  0
M  END
>  <QED>  (119) 
0.442

>  <MW>  (119) 
488.4

$$$$
CHEMBL3263699
     RDKit          3D

 60 62  0  0  0  0  0  0  0  0999 V2000
   -3.2510    1.4623   -2.3371 C   0  0  0  0  0  0  0  0  0  0  0  0
   -1.9048    0.7828   -2.0943 C   0  0  0  0  0  0  0  0  0  0  0  0
   -1.2409    0.4580   -3.4357 C   0  0  0  0  0  0  0  0  0  0  0  0
   -2.0383   -0.5041   -1.2588 C   0  0  0  0  0  0  0  0  0  0  0  0
   -2.5893   -0.2781    0.1088 N   0  0  0  0  0  0  0  0  0  0  0  0
   -1.8202    0.6482    0.9850 C   0  0  0  0  0  0  0  0  0  0  0  0
   -0.4114    0.1915    1.2415 C   0  0  0  0  0  0  0  0  0  0  0  0
    0.0294   -0.8573    2.0242 C   0  0  0  0  0  0  0  0  0  0  0  0
    1.4494   -0.9754    2.0309 C   0  0  0  0  0  0  0  0  0  0  0  0
    2.0686   -0.0057    1.2662 C   0  0  0  0  0  0  0  0  0  0  0  0
    3.5046    0.2101    1.0468 C   0  0  0  0  0  0  0  0  0  0  0  0
    4.3964    0.1402    2.1282 C   0  0  0  0  0  0  0  0  0  0  0  0
    5.7684    0.3323    1.9389 C   0  0  0  0  0  0  0  0  0  0  0  0
    6.2603    0.6056    0.6655 C   0  0  0  0  0  0  0  0  0  0  0  0
    7.6631    0.7606    0.4667 N   0  0  0  0  0  0  0  0  0  0  0  0
    8.5616   -0.6501    0.1947 S   0  0  0  0  0  0  0  0  0  0  0  0
    9.2839   -0.9136    1.7988 C   0  0  0  0  0  0  0  0  0  0  0  0
    7.6858   -1.7562   -0.1175 O   0  0  0  0  0  0  0  0  0  0  0  0
    9.6266   -0.2551   -0.7035 O   0  0  0  0  0  0  0  0  0  0  0  0
    5.3938    0.6575   -0.4243 C   0  0  0  0  0  0  0  0  0  0  0  0
    4.0220    0.4638   -0.2327 C   0  0  0  0  0  0  0  0  0  0  0  0
    0.9119    1.0494    0.5677 S   0  0  0  0  0  0  0  0  0  0  0  0
   -3.2145   -1.6574    0.8860 S   0  0  0  0  0  0  0  0  0  0  0  0
   -2.3596   -2.7753    0.5361 O   0  0  0  0  0  0  0  0  0  0  0  0
   -3.4436   -1.3420    2.2825 O   0  0  0  0  0  0  0  0  0  0  0  0
   -4.8107   -1.9317    0.0991 C   0  0  0  0  0  0  0  0  0  0  0  0
   -5.6852   -0.7033    0.0920 C   0  0  0  0  0  0  0  0  0  0  0  0
   -6.1271   -0.1023    1.2796 C   0  0  0  0  0  0  0  0  0  0  0  0
   -6.9643    1.0149    1.2460 C   0  0  0  0  0  0  0  0  0  0  0  0
   -7.3879    1.5349    0.0261 C   0  0  0  0  0  0  0  0  0  0  0  0
   -6.9819    0.9327   -1.1614 C   0  0  0  0  0  0  0  0  0  0  0  0
   -6.1429   -0.1831   -1.1285 C   0  0  0  0  0  0  0  0  0  0  0  0
   -3.1206    2.3773   -2.9252 H   0  0  0  0  0  0  0  0  0  0  0  0
   -3.9306    0.8066   -2.8899 H   0  0  0  0  0  0  0  0  0  0  0  0
   -3.7282    1.7456   -1.3943 H   0  0  0  0  0  0  0  0  0  0  0  0
   -1.2567    1.5001   -1.5822 H   0  0  0  0  0  0  0  0  0  0  0  0
   -0.2511    0.0152   -3.2819 H   0  0  0  0  0  0  0  0  0  0  0  0
   -1.8427   -0.2484   -4.0176 H   0  0  0  0  0  0  0  0  0  0  0  0
   -1.1101    1.3654   -4.0350 H   0  0  0  0  0  0  0  0  0  0  0  0
   -1.0632   -0.9990   -1.1796 H   0  0  0  0  0  0  0  0  0  0  0  0
   -2.6997   -1.1925   -1.7987 H   0  0  0  0  0  0  0  0  0  0  0  0
   -2.3383    0.7858    1.9411 H   0  0  0  0  0  0  0  0  0  0  0  0
   -1.8383    1.6488    0.5378 H   0  0  0  0  0  0  0  0  0  0  0  0
   -0.6346   -1.5232    2.5640 H   0  0  0  0  0  0  0  0  0  0  0  0
    1.9875   -1.7465    2.5691 H   0  0  0  0  0  0  0  0  0  0  0  0
    4.0268   -0.0567    3.1324 H   0  0  0  0  0  0  0  0  0  0  0  0
    6.4368    0.2819    2.7925 H   0  0  0  0  0  0  0  0  0  0  0  0
    7.9214    1.4487   -0.2439 H   0  0  0  0  0  0  0  0  0  0  0  0
    8.4939   -1.1409    2.5157 H   0  0  0  0  0  0  0  0  0  0  0  0
    9.9673   -1.7624    1.7229 H   0  0  0  0  0  0  0  0  0  0  0  0
    9.8371   -0.0192    2.0912 H   0  0  0  0  0  0  0  0  0  0  0  0
    5.7716    0.8287   -1.4282 H   0  0  0  0  0  0  0  0  0  0  0  0
    3.3644    0.4922   -1.0987 H   0  0  0  0  0  0  0  0  0  0  0  0
   -4.6093   -2.2900   -0.9156 H   0  0  0  0  0  0  0  0  0  0  0  0
   -5.3059   -2.7411    0.6461 H   0  0  0  0  0  0  0  0  0  0  0  0
   -5.8286   -0.4965    2.2498 H   0  0  0  0  0  0  0  0  0  0  0  0
   -7.2897    1.4749    2.1758 H   0  0  0  0  0  0  0  0  0  0  0  0
   -8.0411    2.4032    0.0019 H   0  0  0  0  0  0  0  0  0  0  0  0
   -7.3209    1.3300   -2.1147 H   0  0  0  0  0  0  0  0  0  0  0  0
   -5.8494   -0.6422   -2.0703 H   0  0  0  0  0  0  0  0  0  0  0  0
  1  2  1  0
  2  3  1  0
  2  4  1  0
  4  5  1  0
  5  6  1  0
  6  7  1  0
  7  8  2  0
  8  9  1  0
  9 10  2  0
 10 11  1  0
 11 12  1  0
 12 13  2  0
 13 14  1  0
 14 15  1  0
 15 16  1  0
 16 17  1  0
 16 18  2  0
 16 19  2  0
 14 20  2  0
 20 21  1  0
 10 22  1  0
  5 23  1  0
 23 24  2  0
 23 25  2  0
 23 26  1  0
 26 27  1  0
 27 28  2  0
 28 29  1  0
 29 30  2  0
 30 31  1  0
 31 32  2  0
 22  7  1  0
 32 27  1  0
 21 11  2  0
  1 33  1  0
  1 34  1  0
  1 35  1  0
  2 36  1  0
  3 37  1  0
  3 38  1  0
  3 39  1  0
  4 40  1  0
  4 41  1  0
  6 42  1  0
  6 43  1  0
  8 44  1  0
  9 45  1  0
 12 46  1  0
 13 47  1  0
 15 48  1  0
 17 49  1  0
 17 50  1  0
 17 51  1  0
 20 52  1  0
 21 53  1  0
 26 54  1  0
 26 55  1  0
 28 56  1  0
 29 57  1  0
 30 58  1  0
 31 59  1  0
 32 60  1  0
M  END
>  <QED>  (120) 
0.442

>  <MW>  (120) 
492.7

$$$$
CHEMBL3314016
     RDKit          3D

 52 54  0  0  0  0  0  0  0  0999 V2000
   -6.6680    2.3779   -2.7688 C   0  0  0  0  0  0  0  0  0  0  0  0
   -5.7165    1.4766   -2.0075 C   0  0  0  0  0  0  0  0  0  0  0  0
   -6.5405    0.0132   -1.4072 S   0  0  0  0  0  0  0  0  0  0  0  0
   -7.5030    0.4040   -0.3953 O   0  0  0  0  0  0  0  0  0  0  0  0
   -6.9406   -0.7847   -2.5512 O   0  0  0  0  0  0  0  0  0  0  0  0
   -5.2358   -0.8666   -0.5767 C   0  0  0  0  0  0  0  0  0  0  0  0
   -4.8865   -0.5013    0.7247 C   0  0  0  0  0  0  0  0  0  0  0  0
   -3.8708   -1.1960    1.3822 C   0  0  0  0  0  0  0  0  0  0  0  0
   -3.2086   -2.2599    0.7493 C   0  0  0  0  0  0  0  0  0  0  0  0
   -2.1139   -3.0084    1.4739 C   0  0  0  0  0  0  0  0  0  0  0  0
   -0.9163   -2.1311    1.8107 C   0  0  0  0  0  0  0  0  0  0  0  0
   -0.6553   -1.8451    2.9749 O   0  0  0  0  0  0  0  0  0  0  0  0
   -0.2072   -1.7369    0.6867 N   0  0  0  0  0  0  0  0  0  0  0  0
    0.9600   -0.9476    0.6380 C   0  0  0  0  0  0  0  0  0  0  0  0
    1.4604   -0.6319   -0.6296 C   0  0  0  0  0  0  0  0  0  0  0  0
    2.6154    0.1444   -0.7691 C   0  0  0  0  0  0  0  0  0  0  0  0
    3.3042    0.6238    0.3561 C   0  0  0  0  0  0  0  0  0  0  0  0
    4.5202    1.4335    0.1626 C   0  0  0  0  0  0  0  0  0  0  0  0
    4.3936    2.8154   -0.0675 C   0  0  0  0  0  0  0  0  0  0  0  0
    5.5192    3.6148   -0.2558 C   0  0  0  0  0  0  0  0  0  0  0  0
    6.7861    3.0426   -0.2187 C   0  0  0  0  0  0  0  0  0  0  0  0
    6.9338    1.6716    0.0071 C   0  0  0  0  0  0  0  0  0  0  0  0
    5.8109    0.8580    0.1998 C   0  0  0  0  0  0  0  0  0  0  0  0
    5.8484   -0.4941    0.4199 O   0  0  0  0  0  0  0  0  0  0  0  0
    7.1095   -1.1171    0.5697 C   0  0  0  0  0  0  0  0  0  0  0  0
    7.8329   -1.0240   -0.5675 F   0  0  0  0  0  0  0  0  0  0  0  0
    7.8073   -0.5807    1.5929 F   0  0  0  0  0  0  0  0  0  0  0  0
    6.9170   -2.4289    0.8334 F   0  0  0  0  0  0  0  0  0  0  0  0
    2.7947    0.3004    1.6260 C   0  0  0  0  0  0  0  0  0  0  0  0
    3.5675    0.8499    3.0762 Cl  0  0  0  0  0  0  0  0  0  0  0  0
    1.6354   -0.4768    1.7640 C   0  0  0  0  0  0  0  0  0  0  0  0
   -3.5878   -2.6285   -0.5502 C   0  0  0  0  0  0  0  0  0  0  0  0
   -4.6011   -1.9346   -1.2144 C   0  0  0  0  0  0  0  0  0  0  0  0
   -7.4978    2.7021   -2.1327 H   0  0  0  0  0  0  0  0  0  0  0  0
   -6.1435    3.2689   -3.1270 H   0  0  0  0  0  0  0  0  0  0  0  0
   -7.0934    1.8606   -3.6347 H   0  0  0  0  0  0  0  0  0  0  0  0
   -4.8977    1.1534   -2.6572 H   0  0  0  0  0  0  0  0  0  0  0  0
   -5.3040    2.0058   -1.1435 H   0  0  0  0  0  0  0  0  0  0  0  0
   -5.4032    0.3077    1.2372 H   0  0  0  0  0  0  0  0  0  0  0  0
   -3.6034   -0.9093    2.3995 H   0  0  0  0  0  0  0  0  0  0  0  0
   -2.5189   -3.4275    2.4030 H   0  0  0  0  0  0  0  0  0  0  0  0
   -1.7593   -3.8603    0.8806 H   0  0  0  0  0  0  0  0  0  0  0  0
   -0.5983   -2.0095   -0.2068 H   0  0  0  0  0  0  0  0  0  0  0  0
    0.9635   -0.9841   -1.5303 H   0  0  0  0  0  0  0  0  0  0  0  0
    2.9847    0.3706   -1.7682 H   0  0  0  0  0  0  0  0  0  0  0  0
    3.4077    3.2760   -0.0911 H   0  0  0  0  0  0  0  0  0  0  0  0
    5.4069    4.6825   -0.4264 H   0  0  0  0  0  0  0  0  0  0  0  0
    7.6662    3.6652   -0.3629 H   0  0  0  0  0  0  0  0  0  0  0  0
    7.9461    1.2782    0.0255 H   0  0  0  0  0  0  0  0  0  0  0  0
    1.2859   -0.7013    2.7668 H   0  0  0  0  0  0  0  0  0  0  0  0
   -3.1104   -3.4688   -1.0509 H   0  0  0  0  0  0  0  0  0  0  0  0
   -4.8959   -2.2419   -2.2159 H   0  0  0  0  0  0  0  0  0  0  0  0
  1  2  1  0
  2  3  1  0
  3  4  2  0
  3  5  2  0
  3  6  1  0
  6  7  1  0
  7  8  2  0
  8  9  1  0
  9 10  1  0
 10 11  1  0
 11 12  2  0
 11 13  1  0
 13 14  1  0
 14 15  1  0
 15 16  2  0
 16 17  1  0
 17 18  1  0
 18 19  2  0
 19 20  1  0
 20 21  2  0
 21 22  1  0
 22 23  2  0
 23 24  1  0
 24 25  1  0
 25 26  1  0
 25 27  1  0
 25 28  1  0
 17 29  2  0
 29 30  1  0
 29 31  1  0
  9 32  2  0
 32 33  1  0
 33  6  2  0
 31 14  2  0
 23 18  1  0
  1 34  1  0
  1 35  1  0
  1 36  1  0
  2 37  1  0
  2 38  1  0
  7 39  1  0
  8 40  1  0
 10 41  1  0
 10 42  1  0
 13 43  1  0
 15 44  1  0
 16 45  1  0
 19 46  1  0
 20 47  1  0
 21 48  1  0
 22 49  1  0
 31 50  1  0
 32 51  1  0
 33 52  1  0
M  END
>  <QED>  (121) 
0.442

>  <MW>  (121) 
497.9

$$$$
CHEMBL3598065
     RDKit          3D

 72 77  0  0  0  0  0  0  0  0999 V2000
   -3.5018   -0.3520    4.7222 H   0  0  0  0  0  0  0  0  0  0  0  0
   -3.7546   -1.0221    3.8944 C   0  0  0  0  0  0  0  0  0  0  0  0
   -3.1510   -1.9339    3.9431 H   0  0  0  0  0  0  0  0  0  0  0  0
   -4.8083   -1.3045    3.9881 H   0  0  0  0  0  0  0  0  0  0  0  0
   -3.5430   -0.3297    2.6326 N   0  0  0  0  0  0  0  0  0  0  0  0
   -4.4676    0.6820    2.3081 C   0  0  0  0  0  0  0  0  0  0  0  0
   -5.5241    0.8330    2.9253 O   0  0  0  0  0  0  0  0  0  0  0  0
   -4.1708    1.6656    1.2501 C   0  0  0  0  0  0  0  0  0  0  0  0
   -3.1032    2.5490    1.4215 C   0  0  0  0  0  0  0  0  0  0  0  0
   -2.3531    2.5184    2.5333 F   0  0  0  0  0  0  0  0  0  0  0  0
   -2.8071    3.5181    0.4641 C   0  0  0  0  0  0  0  0  0  0  0  0
   -3.5992    3.6297   -0.6746 C   0  0  0  0  0  0  0  0  0  0  0  0
   -4.7021    2.7892   -0.8314 C   0  0  0  0  0  0  0  0  0  0  0  0
   -5.0026    1.8209    0.1372 C   0  0  0  0  0  0  0  0  0  0  0  0
   -6.4400    0.8935   -0.0998 Cl  0  0  0  0  0  0  0  0  0  0  0  0
   -2.2697   -0.4675    2.0016 C   0  0  0  0  0  0  0  0  0  0  0  0
   -1.1383   -0.2061    2.8026 C   0  0  0  0  0  0  0  0  0  0  0  0
    0.1315   -0.1122    2.2437 C   0  0  0  0  0  0  0  0  0  0  0  0
    0.2838   -0.2509    0.8707 C   0  0  0  0  0  0  0  0  0  0  0  0
    1.5988   -0.1192    0.2627 C   0  0  0  0  0  0  0  0  0  0  0  0
    2.5783   -1.0848    0.1218 C   0  0  0  0  0  0  0  0  0  0  0  0
    3.6525   -0.4624   -0.5482 C   0  0  0  0  0  0  0  0  0  0  0  0
    4.8267   -1.1050   -0.8697 N   0  0  0  0  0  0  0  0  0  0  0  0
    5.8361   -0.5882   -1.6489 C   0  0  0  0  0  0  0  0  0  0  0  0
    5.8255    0.4646   -2.2767 O   0  0  0  0  0  0  0  0  0  0  0  0
    6.9462   -1.4221   -1.6829 N   0  0  0  0  0  0  0  0  0  0  0  0
    7.5338   -2.1561   -0.5608 C   0  0  0  0  0  0  0  0  0  0  0  0
    8.8308   -1.3716   -0.8335 C   0  0  0  0  0  0  0  0  0  0  0  0
    9.1009   -0.2521    0.0433 O   0  0  0  0  0  0  0  0  0  0  0  0
    8.2558   -1.0406   -2.2219 C   0  0  0  0  0  0  0  0  0  0  0  0
    3.3791    0.8153   -0.7880 N   0  0  0  0  0  0  0  0  0  0  0  0
    2.1357    1.0153   -0.3050 N   0  0  0  0  0  0  0  0  0  0  0  0
    1.5737    2.3564   -0.4531 C   0  0  0  0  0  0  0  0  0  0  0  0
    0.4276    2.4056   -1.4615 C   0  0  0  0  0  0  0  0  0  0  0  0
    1.1956    3.0075    0.8759 C   0  0  0  0  0  0  0  0  0  0  0  0
   -0.8293   -0.5842    0.0835 C   0  0  0  0  0  0  0  0  0  0  0  0
   -2.1239   -0.7725    0.6193 C   0  0  0  0  0  0  0  0  0  0  0  0
   -3.1688   -1.2516   -0.1935 N   0  0  0  0  0  0  0  0  0  0  0  0
   -4.1812   -2.1414    0.4235 C   0  0  0  0  0  0  0  0  0  0  0  0
   -4.7620   -2.9332   -0.7126 C   0  0  0  0  0  0  0  0  0  0  0  0
   -5.4253   -2.2750   -1.8990 C   0  0  0  0  0  0  0  0  0  0  0  0
   -3.9702   -2.6558   -1.9368 C   0  0  0  0  0  0  0  0  0  0  0  0
   -2.8776   -1.6980   -1.5751 C   0  0  0  0  0  0  0  0  0  0  0  0
   -1.9677    4.1882    0.6233 H   0  0  0  0  0  0  0  0  0  0  0  0
   -3.3771    4.3846   -1.4251 H   0  0  0  0  0  0  0  0  0  0  0  0
   -5.3394    2.9028   -1.7060 H   0  0  0  0  0  0  0  0  0  0  0  0
   -1.2491    0.0079    3.8629 H   0  0  0  0  0  0  0  0  0  0  0  0
    0.9835    0.1203    2.8778 H   0  0  0  0  0  0  0  0  0  0  0  0
    2.5094   -2.1101    0.4554 H   0  0  0  0  0  0  0  0  0  0  0  0
    4.8920   -2.0787   -0.6278 H   0  0  0  0  0  0  0  0  0  0  0  0
    7.0746   -1.9627    0.4121 H   0  0  0  0  0  0  0  0  0  0  0  0
    7.5851   -3.2328   -0.7468 H   0  0  0  0  0  0  0  0  0  0  0  0
    9.7171   -2.0142   -0.8758 H   0  0  0  0  0  0  0  0  0  0  0  0
    8.3483    0.3562   -0.0849 H   0  0  0  0  0  0  0  0  0  0  0  0
    8.5784   -1.6987   -3.0342 H   0  0  0  0  0  0  0  0  0  0  0  0
    8.3465    0.0044   -2.5286 H   0  0  0  0  0  0  0  0  0  0  0  0
    2.3868    2.9658   -0.8731 H   0  0  0  0  0  0  0  0  0  0  0  0
   -0.4734    1.9169   -1.0836 H   0  0  0  0  0  0  0  0  0  0  0  0
    0.1639    3.4441   -1.6896 H   0  0  0  0  0  0  0  0  0  0  0  0
    0.7072    1.9151   -2.4002 H   0  0  0  0  0  0  0  0  0  0  0  0
    2.0029    2.9075    1.6092 H   0  0  0  0  0  0  0  0  0  0  0  0
    0.2907    2.5709    1.3055 H   0  0  0  0  0  0  0  0  0  0  0  0
    1.0006    4.0761    0.7333 H   0  0  0  0  0  0  0  0  0  0  0  0
   -0.6484   -0.7130   -0.9802 H   0  0  0  0  0  0  0  0  0  0  0  0
   -3.7186   -2.8324    1.1380 H   0  0  0  0  0  0  0  0  0  0  0  0
   -4.9822   -1.5830    0.9105 H   0  0  0  0  0  0  0  0  0  0  0  0
   -5.0312   -3.9462   -0.4550 H   0  0  0  0  0  0  0  0  0  0  0  0
   -5.6722   -1.2232   -1.8525 H   0  0  0  0  0  0  0  0  0  0  0  0
   -6.1221   -2.8676   -2.4799 H   0  0  0  0  0  0  0  0  0  0  0  0
   -3.6561   -3.4684   -2.5747 H   0  0  0  0  0  0  0  0  0  0  0  0
   -2.8511   -0.8456   -2.2614 H   0  0  0  0  0  0  0  0  0  0  0  0
   -1.9363   -2.2557   -1.6349 H   0  0  0  0  0  0  0  0  0  0  0  0
  1  2  1  0
  2  3  1  0
  2  4  1  0
  2  5  1  0
  5  6  1  0
  6  7  2  0
  6  8  1  0
  8  9  2  0
  9 10  1  0
  9 11  1  0
 11 12  2  0
 12 13  1  0
 13 14  2  0
 14 15  1  0
  5 16  1  0
 16 17  1  0
 17 18  2  0
 18 19  1  0
 19 20  1  0
 20 21  2  0
 21 22  1  0
 22 23  1  0
 23 24  1  0
 24 25  2  0
 24 26  1  0
 26 27  1  0
 27 28  1  0
 28 29  1  0
 28 30  1  0
 22 31  2  0
 31 32  1  0
 32 33  1  0
 33 34  1  0
 33 35  1  0
 19 36  2  0
 36 37  1  0
 37 38  1  0
 38 39  1  0
 39 40  1  0
 40 41  1  0
 41 42  1  0
 42 43  1  0
 14  8  1  0
 37 16  2  0
 43 38  1  0
 32 20  1  0
 42 40  1  0
 30 26  1  0
 11 44  1  0
 12 45  1  0
 13 46  1  0
 17 47  1  0
 18 48  1  0
 21 49  1  0
 23 50  1  0
 27 51  1  0
 27 52  1  0
 28 53  1  0
 29 54  1  0
 30 55  1  0
 30 56  1  0
 33 57  1  0
 34 58  1  0
 34 59  1  0
 34 60  1  0
 35 61  1  0
 35 62  1  0
 35 63  1  0
 36 64  1  0
 39 65  1  0
 39 66  1  0
 40 67  1  0
 41 68  1  0
 41 69  1  0
 42 70  1  0
 43 71  1  0
 43 72  1  0
M  ISO  3   1   2   3   2   4   2
M  END
>  <QED>  (122) 
0.442

>  <MW>  (122) 
570.1

$$$$
CHEMBL3598140
     RDKit          3D

 43 46  0  0  0  0  0  0  0  0999 V2000
    5.5509    2.5671   -2.3773 O   0  0  0  0  0  0  0  0  0  0  0  0
    5.4942    1.7977   -1.4362 C   0  0  0  0  0  0  0  0  0  0  0  0
    6.5924    1.4776   -0.7292 O   0  0  0  0  0  0  0  0  0  0  0  0
    4.2723    1.1194   -0.9398 C   0  0  0  0  0  0  0  0  0  0  0  0
    3.0627    1.3642   -1.5995 C   0  0  0  0  0  0  0  0  0  0  0  0
    1.8869    0.7465   -1.1623 C   0  0  0  0  0  0  0  0  0  0  0  0
    1.9061   -0.1278   -0.0657 C   0  0  0  0  0  0  0  0  0  0  0  0
    0.6686   -0.7649    0.3817 C   0  0  0  0  0  0  0  0  0  0  0  0
   -0.4646   -0.0545    0.4628 N   0  0  0  0  0  0  0  0  0  0  0  0
   -1.4011   -0.9321    0.9100 N   0  0  0  0  0  0  0  0  0  0  0  0
   -2.7167   -0.4603    1.0813 C   0  0  0  0  0  0  0  0  0  0  0  0
   -3.6045   -1.2382    1.4236 O   0  0  0  0  0  0  0  0  0  0  0  0
   -3.0815    0.9532    0.8568 C   0  0  0  0  0  0  0  0  0  0  0  0
   -3.1764    1.8018    1.9687 C   0  0  0  0  0  0  0  0  0  0  0  0
   -2.8452    1.2602    3.5761 Cl  0  0  0  0  0  0  0  0  0  0  0  0
   -3.5290    3.1417    1.7952 C   0  0  0  0  0  0  0  0  0  0  0  0
   -3.7820    3.6382    0.5181 C   0  0  0  0  0  0  0  0  0  0  0  0
   -3.6798    2.7964   -0.5898 C   0  0  0  0  0  0  0  0  0  0  0  0
   -3.3338    1.4395   -0.4400 C   0  0  0  0  0  0  0  0  0  0  0  0
   -3.1959    0.5874   -1.6755 C   0  0  0  0  0  0  0  0  0  0  0  0
   -3.3060   -0.7487   -1.4572 F   0  0  0  0  0  0  0  0  0  0  0  0
   -1.9962    0.7693   -2.2919 F   0  0  0  0  0  0  0  0  0  0  0  0
   -4.1391    0.8820   -2.6150 F   0  0  0  0  0  0  0  0  0  0  0  0
   -0.8912   -2.2032    1.1059 C   0  0  0  0  0  0  0  0  0  0  0  0
   -1.4821   -3.4007    1.5424 C   0  0  0  0  0  0  0  0  0  0  0  0
   -0.6750   -4.5390    1.6187 C   0  0  0  0  0  0  0  0  0  0  0  0
    0.6706   -4.4874    1.2680 C   0  0  0  0  0  0  0  0  0  0  0  0
    1.2485   -3.2889    0.8352 C   0  0  0  0  0  0  0  0  0  0  0  0
    0.4567   -2.1233    0.7618 C   0  0  0  0  0  0  0  0  0  0  0  0
    3.1183   -0.3621    0.5971 C   0  0  0  0  0  0  0  0  0  0  0  0
    4.2964    0.2557    0.1619 C   0  0  0  0  0  0  0  0  0  0  0  0
    7.3068    1.9900   -1.1630 H   0  0  0  0  0  0  0  0  0  0  0  0
    3.0281    2.0371   -2.4542 H   0  0  0  0  0  0  0  0  0  0  0  0
    0.9529    0.9491   -1.6844 H   0  0  0  0  0  0  0  0  0  0  0  0
   -3.6030    3.8071    2.6527 H   0  0  0  0  0  0  0  0  0  0  0  0
   -4.0520    4.6840    0.3852 H   0  0  0  0  0  0  0  0  0  0  0  0
   -3.8700    3.2048   -1.5832 H   0  0  0  0  0  0  0  0  0  0  0  0
   -2.5344   -3.4527    1.8101 H   0  0  0  0  0  0  0  0  0  0  0  0
   -1.1099   -5.4794    1.9514 H   0  0  0  0  0  0  0  0  0  0  0  0
    1.2781   -5.3877    1.3260 H   0  0  0  0  0  0  0  0  0  0  0  0
    2.2970   -3.2693    0.5518 H   0  0  0  0  0  0  0  0  0  0  0  0
    3.1573   -1.0108    1.4694 H   0  0  0  0  0  0  0  0  0  0  0  0
    5.2246    0.0612    0.6941 H   0  0  0  0  0  0  0  0  0  0  0  0
  1  2  2  0
  2  3  1  0
  2  4  1  0
  4  5  1  0
  5  6  2  0
  6  7  1  0
  7  8  1  0
  8  9  2  0
  9 10  1  0
 10 11  1  0
 11 12  2  0
 11 13  1  0
 13 14  2  0
 14 15  1  0
 14 16  1  0
 16 17  2  0
 17 18  1  0
 18 19  2  0
 19 20  1  0
 20 21  1  0
 20 22  1  0
 20 23  1  0
 10 24  1  0
 24 25  2  0
 25 26  1  0
 26 27  2  0
 27 28  1  0
 28 29  2  0
  7 30  2  0
 30 31  1  0
 31  4  2  0
 29  8  1  0
 19 13  1  0
 29 24  1  0
  3 32  1  0
  5 33  1  0
  6 34  1  0
 16 35  1  0
 17 36  1  0
 18 37  1  0
 25 38  1  0
 26 39  1  0
 27 40  1  0
 28 41  1  0
 30 42  1  0
 31 43  1  0
M  END
>  <QED>  (123) 
0.436

>  <MW>  (123) 
444.8

$$$$
CHEMBL3109325
     RDKit          3D

 65 67  0  0  0  0  0  0  0  0999 V2000
   -5.9436    0.7841    3.3044 C   0  0  0  0  0  0  0  0  0  0  0  0
   -5.2615   -0.3874    2.6117 C   0  0  0  0  0  0  0  0  0  0  0  0
   -4.0061    0.0226    1.8298 C   0  0  0  0  0  0  0  0  0  0  0  0
   -4.2294    1.0110    0.7617 N   0  0  0  0  0  0  0  0  0  0  0  0
   -4.6850    0.4092   -0.5057 C   0  0  0  0  0  0  0  0  0  0  0  0
   -6.1496    0.0297   -0.5348 C   0  0  0  0  0  0  0  0  0  0  0  0
   -7.1415    0.9885   -0.2794 C   0  0  0  0  0  0  0  0  0  0  0  0
   -8.4930    0.6449   -0.3327 C   0  0  0  0  0  0  0  0  0  0  0  0
   -8.8686   -0.6582   -0.6523 C   0  0  0  0  0  0  0  0  0  0  0  0
   -7.8940   -1.6178   -0.9204 C   0  0  0  0  0  0  0  0  0  0  0  0
   -6.5414   -1.2759   -0.8661 C   0  0  0  0  0  0  0  0  0  0  0  0
   -3.0479    1.8724    0.5490 C   0  0  0  0  0  0  0  0  0  0  0  0
   -1.7912    1.2007    0.0287 C   0  0  0  0  0  0  0  0  0  0  0  0
   -1.5374    1.1236   -1.3472 C   0  0  0  0  0  0  0  0  0  0  0  0
   -0.3808    0.5022   -1.8342 C   0  0  0  0  0  0  0  0  0  0  0  0
    0.5495   -0.0498   -0.9553 C   0  0  0  0  0  0  0  0  0  0  0  0
    1.7360   -0.6940   -1.3603 N   0  0  0  0  0  0  0  0  0  0  0  0
    2.2220   -0.8440   -2.6485 C   0  0  0  0  0  0  0  0  0  0  0  0
    1.6853   -0.4486   -3.6800 O   0  0  0  0  0  0  0  0  0  0  0  0
    3.5237   -1.6335   -2.7181 C   0  0  0  0  0  0  0  0  0  0  0  0
    4.6049   -1.1468   -1.7783 C   0  0  0  0  0  0  0  0  0  0  0  0
    5.1643   -2.0169   -0.8301 C   0  0  0  0  0  0  0  0  0  0  0  0
    6.1555   -1.5679    0.0438 C   0  0  0  0  0  0  0  0  0  0  0  0
    6.5993   -0.2465   -0.0406 C   0  0  0  0  0  0  0  0  0  0  0  0
    7.8480    0.3367    1.0848 S   0  0  0  0  0  0  0  0  0  0  0  0
    7.6301    1.7592    1.2654 O   0  0  0  0  0  0  0  0  0  0  0  0
    7.8566   -0.5659    2.2207 O   0  0  0  0  0  0  0  0  0  0  0  0
    9.3571    0.1026    0.1638 C   0  0  0  0  0  0  0  0  0  0  0  0
   10.5688    0.5430    0.9606 C   0  0  0  0  0  0  0  0  0  0  0  0
    6.0501    0.6342   -0.9743 C   0  0  0  0  0  0  0  0  0  0  0  0
    5.0615    0.1790   -1.8475 C   0  0  0  0  0  0  0  0  0  0  0  0
    0.3053    0.0314    0.4203 C   0  0  0  0  0  0  0  0  0  0  0  0
   -0.8498    0.6521    0.9077 C   0  0  0  0  0  0  0  0  0  0  0  0
   -6.8011    0.4295    3.8851 H   0  0  0  0  0  0  0  0  0  0  0  0
   -6.3082    1.5236    2.5864 H   0  0  0  0  0  0  0  0  0  0  0  0
   -5.2550    1.2855    3.9922 H   0  0  0  0  0  0  0  0  0  0  0  0
   -5.9786   -0.9091    1.9740 H   0  0  0  0  0  0  0  0  0  0  0  0
   -4.9624   -1.1119    3.3796 H   0  0  0  0  0  0  0  0  0  0  0  0
   -3.5107   -0.8754    1.4391 H   0  0  0  0  0  0  0  0  0  0  0  0
   -3.3228    0.4426    2.5798 H   0  0  0  0  0  0  0  0  0  0  0  0
   -4.0624   -0.4542   -0.7740 H   0  0  0  0  0  0  0  0  0  0  0  0
   -4.5697    1.1314   -1.3258 H   0  0  0  0  0  0  0  0  0  0  0  0
   -6.8563    2.0074   -0.0259 H   0  0  0  0  0  0  0  0  0  0  0  0
   -9.2509    1.3949   -0.1237 H   0  0  0  0  0  0  0  0  0  0  0  0
   -9.9210   -0.9256   -0.6935 H   0  0  0  0  0  0  0  0  0  0  0  0
   -8.1871   -2.6334   -1.1725 H   0  0  0  0  0  0  0  0  0  0  0  0
   -5.7938   -2.0362   -1.0796 H   0  0  0  0  0  0  0  0  0  0  0  0
   -3.3216    2.6876   -0.1351 H   0  0  0  0  0  0  0  0  0  0  0  0
   -2.8085    2.3930    1.4866 H   0  0  0  0  0  0  0  0  0  0  0  0
   -2.2388    1.5512   -2.0609 H   0  0  0  0  0  0  0  0  0  0  0  0
   -0.2409    0.4691   -2.9100 H   0  0  0  0  0  0  0  0  0  0  0  0
    2.3255   -1.0380   -0.6116 H   0  0  0  0  0  0  0  0  0  0  0  0
    3.2797   -2.6848   -2.5229 H   0  0  0  0  0  0  0  0  0  0  0  0
    3.9107   -1.5810   -3.7432 H   0  0  0  0  0  0  0  0  0  0  0  0
    4.8303   -3.0510   -0.7614 H   0  0  0  0  0  0  0  0  0  0  0  0
    6.5693   -2.2499    0.7841 H   0  0  0  0  0  0  0  0  0  0  0  0
    9.2780    0.6851   -0.7588 H   0  0  0  0  0  0  0  0  0  0  0  0
    9.4326   -0.9600   -0.0857 H   0  0  0  0  0  0  0  0  0  0  0  0
   11.4828    0.3915    0.3784 H   0  0  0  0  0  0  0  0  0  0  0  0
   10.5032    1.6035    1.2242 H   0  0  0  0  0  0  0  0  0  0  0  0
   10.6576   -0.0273    1.8908 H   0  0  0  0  0  0  0  0  0  0  0  0
    6.3765    1.6711   -1.0257 H   0  0  0  0  0  0  0  0  0  0  0  0
    4.6396    0.8703   -2.5769 H   0  0  0  0  0  0  0  0  0  0  0  0
    1.0112   -0.3809    1.1369 H   0  0  0  0  0  0  0  0  0  0  0  0
   -1.0048    0.7076    1.9827 H   0  0  0  0  0  0  0  0  0  0  0  0
  1  2  1  0
  2  3  1  0
  3  4  1  0
  4  5  1  0
  5  6  1  0
  6  7  2  0
  7  8  1  0
  8  9  2  0
  9 10  1  0
 10 11  2  0
  4 12  1  0
 12 13  1  0
 13 14  1  0
 14 15  2  0
 15 16  1  0
 16 17  1  0
 17 18  1  0
 18 19  2  0
 18 20  1  0
 20 21  1  0
 21 22  1  0
 22 23  2  0
 23 24  1  0
 24 25  1  0
 25 26  2  0
 25 27  2  0
 25 28  1  0
 28 29  1  0
 24 30  2  0
 30 31  1  0
 16 32  2  0
 32 33  1  0
 11  6  1  0
 33 13  2  0
 31 21  2  0
  1 34  1  0
  1 35  1  0
  1 36  1  0
  2 37  1  0
  2 38  1  0
  3 39  1  0
  3 40  1  0
  5 41  1  0
  5 42  1  0
  7 43  1  0
  8 44  1  0
  9 45  1  0
 10 46  1  0
 11 47  1  0
 12 48  1  0
 12 49  1  0
 14 50  1  0
 15 51  1  0
 17 52  1  0
 20 53  1  0
 20 54  1  0
 22 55  1  0
 23 56  1  0
 28 57  1  0
 28 58  1  0
 29 59  1  0
 29 60  1  0
 29 61  1  0
 30 62  1  0
 31 63  1  0
 32 64  1  0
 33 65  1  0
M  END
>  <QED>  (124) 
0.43

>  <MW>  (124) 
464.6

$$$$
CHEMBL3109224
     RDKit          3D

 59 61  0  0  0  0  0  0  0  0999 V2000
   -9.1101   -1.0896    3.5258 C   0  0  0  0  0  0  0  0  0  0  0  0
   -8.2107   -1.0633    2.3062 C   0  0  0  0  0  0  0  0  0  0  0  0
   -6.5649   -1.6295    2.6949 S   0  0  0  0  0  0  0  0  0  0  0  0
   -6.6319   -3.0362    3.0436 O   0  0  0  0  0  0  0  0  0  0  0  0
   -5.9423   -0.6699    3.5867 O   0  0  0  0  0  0  0  0  0  0  0  0
   -5.7238   -1.5149    1.1311 C   0  0  0  0  0  0  0  0  0  0  0  0
   -5.6480   -2.6368    0.3030 C   0  0  0  0  0  0  0  0  0  0  0  0
   -4.9732   -2.5472   -0.9154 C   0  0  0  0  0  0  0  0  0  0  0  0
   -4.3618   -1.3451   -1.3027 C   0  0  0  0  0  0  0  0  0  0  0  0
   -3.6223   -1.2531   -2.6194 C   0  0  0  0  0  0  0  0  0  0  0  0
   -2.1629   -0.8330   -2.4941 C   0  0  0  0  0  0  0  0  0  0  0  0
   -1.7211    0.0788   -3.1882 O   0  0  0  0  0  0  0  0  0  0  0  0
   -1.4458   -1.5993   -1.5903 N   0  0  0  0  0  0  0  0  0  0  0  0
   -0.0774   -1.4979   -1.2707 C   0  0  0  0  0  0  0  0  0  0  0  0
    0.4073   -2.3293   -0.2587 C   0  0  0  0  0  0  0  0  0  0  0  0
    1.7559   -2.2845    0.1166 C   0  0  0  0  0  0  0  0  0  0  0  0
    2.6543   -1.3961   -0.4864 C   0  0  0  0  0  0  0  0  0  0  0  0
    3.9948   -1.4439   -0.1071 N   0  0  0  0  0  0  0  0  0  0  0  0
    4.9227   -0.3581   -0.4230 C   0  0  0  0  0  0  0  0  0  0  0  0
    4.6584    0.8847    0.4353 C   0  0  0  0  0  0  0  0  0  0  0  0
    5.6408    1.9911    0.1364 C   0  0  0  0  0  0  0  0  0  0  0  0
    5.3638    2.9311   -0.8640 C   0  0  0  0  0  0  0  0  0  0  0  0
    6.2794    3.9446   -1.1561 C   0  0  0  0  0  0  0  0  0  0  0  0
    7.4943    4.0307   -0.4608 C   0  0  0  0  0  0  0  0  0  0  0  0
    8.4732    5.1388   -0.7601 C   0  0  0  0  0  0  0  0  0  0  0  0
    8.2501    6.2472   -0.0015 F   0  0  0  0  0  0  0  0  0  0  0  0
    8.4288    5.5575   -2.0562 F   0  0  0  0  0  0  0  0  0  0  0  0
    9.7691    4.7841   -0.5308 F   0  0  0  0  0  0  0  0  0  0  0  0
    7.7667    3.0899    0.5433 C   0  0  0  0  0  0  0  0  0  0  0  0
    6.8509    2.0765    0.8355 C   0  0  0  0  0  0  0  0  0  0  0  0
    2.1655   -0.6035   -1.5281 C   0  0  0  0  0  0  0  0  0  0  0  0
    0.8147   -0.6405   -1.9081 C   0  0  0  0  0  0  0  0  0  0  0  0
   -4.4459   -0.2278   -0.4567 C   0  0  0  0  0  0  0  0  0  0  0  0
   -5.1167   -0.3125    0.7638 C   0  0  0  0  0  0  0  0  0  0  0  0
   -8.7167   -0.4467    4.3197 H   0  0  0  0  0  0  0  0  0  0  0  0
   -9.1972   -2.1032    3.9299 H   0  0  0  0  0  0  0  0  0  0  0  0
  -10.1132   -0.7376    3.2666 H   0  0  0  0  0  0  0  0  0  0  0  0
   -8.6111   -1.7166    1.5253 H   0  0  0  0  0  0  0  0  0  0  0  0
   -8.1290   -0.0440    1.9174 H   0  0  0  0  0  0  0  0  0  0  0  0
   -6.1038   -3.5802    0.5975 H   0  0  0  0  0  0  0  0  0  0  0  0
   -4.9258   -3.4254   -1.5573 H   0  0  0  0  0  0  0  0  0  0  0  0
   -4.1427   -0.5280   -3.2571 H   0  0  0  0  0  0  0  0  0  0  0  0
   -3.6428   -2.2140   -3.1479 H   0  0  0  0  0  0  0  0  0  0  0  0
   -1.9747   -2.2712   -1.0469 H   0  0  0  0  0  0  0  0  0  0  0  0
   -0.2484   -3.0277    0.2542 H   0  0  0  0  0  0  0  0  0  0  0  0
    2.1003   -2.9599    0.8962 H   0  0  0  0  0  0  0  0  0  0  0  0
    4.1238   -1.8159    0.8303 H   0  0  0  0  0  0  0  0  0  0  0  0
    5.9358   -0.7262   -0.2174 H   0  0  0  0  0  0  0  0  0  0  0  0
    4.9124   -0.1226   -1.4934 H   0  0  0  0  0  0  0  0  0  0  0  0
    4.7136    0.6238    1.5003 H   0  0  0  0  0  0  0  0  0  0  0  0
    3.6386    1.2580    0.2800 H   0  0  0  0  0  0  0  0  0  0  0  0
    4.4294    2.8829   -1.4205 H   0  0  0  0  0  0  0  0  0  0  0  0
    6.0404    4.6694   -1.9334 H   0  0  0  0  0  0  0  0  0  0  0  0
    8.6993    3.1422    1.1036 H   0  0  0  0  0  0  0  0  0  0  0  0
    7.0882    1.3558    1.6157 H   0  0  0  0  0  0  0  0  0  0  0  0
    2.8194    0.0649   -2.0792 H   0  0  0  0  0  0  0  0  0  0  0  0
    0.5024    0.0090   -2.7195 H   0  0  0  0  0  0  0  0  0  0  0  0
   -3.9775    0.7147   -0.7398 H   0  0  0  0  0  0  0  0  0  0  0  0
   -5.1528    0.5559    1.4187 H   0  0  0  0  0  0  0  0  0  0  0  0
  1  2  1  0
  2  3  1  0
  3  4  2  0
  3  5  2  0
  3  6  1  0
  6  7  1  0
  7  8  2  0
  8  9  1  0
  9 10  1  0
 10 11  1  0
 11 12  2  0
 11 13  1  0
 13 14  1  0
 14 15  1  0
 15 16  2  0
 16 17  1  0
 17 18  1  0
 18 19  1  0
 19 20  1  0
 20 21  1  0
 21 22  1  0
 22 23  2  0
 23 24  1  0
 24 25  1  0
 25 26  1  0
 25 27  1  0
 25 28  1  0
 24 29  2  0
 29 30  1  0
 17 31  2  0
 31 32  1  0
  9 33  2  0
 33 34  1  0
 34  6  2  0
 32 14  2  0
 30 21  2  0
  1 35  1  0
  1 36  1  0
  1 37  1  0
  2 38  1  0
  2 39  1  0
  7 40  1  0
  8 41  1  0
 10 42  1  0
 10 43  1  0
 13 44  1  0
 15 45  1  0
 16 46  1  0
 18 47  1  0
 19 48  1  0
 19 49  1  0
 20 50  1  0
 20 51  1  0
 22 52  1  0
 23 53  1  0
 29 54  1  0
 30 55  1  0
 31 56  1  0
 32 57  1  0
 33 58  1  0
 34 59  1  0
M  END
>  <QED>  (125) 
0.425

>  <MW>  (125) 
490.5

$$$$
CHEMBL3361053
     RDKit          3D

 68 70  0  0  0  0  0  0  0  0999 V2000
   -3.7581   -1.7278    1.2258 C   0  0  0  0  0  0  0  0  0  0  0  0
   -2.7440   -0.7226    1.7592 C   0  0  0  0  0  0  0  0  0  0  0  0
   -1.4008   -0.9303    1.0692 C   0  0  0  0  0  0  0  0  0  0  0  0
   -3.2379    0.7395    1.7631 C   0  0  0  0  0  0  0  0  0  0  0  0
   -3.3462    1.3906    0.4031 N   0  0  0  0  0  0  0  0  0  0  0  0
   -4.7724    1.7055    0.0398 C   0  0  0  0  0  0  0  0  0  0  0  0
   -5.5731    0.5233   -0.4675 C   0  0  0  0  0  0  0  0  0  0  0  0
   -6.6693    0.0763    0.2955 C   0  0  0  0  0  0  0  0  0  0  0  0
   -7.4503   -0.9978   -0.1294 C   0  0  0  0  0  0  0  0  0  0  0  0
   -7.1545   -1.6404   -1.3252 C   0  0  0  0  0  0  0  0  0  0  0  0
   -6.0812   -1.2045   -2.1016 C   0  0  0  0  0  0  0  0  0  0  0  0
   -5.2803   -0.1181   -1.6954 C   0  0  0  0  0  0  0  0  0  0  0  0
   -4.1394    0.3237   -2.5903 C   0  0  0  0  0  0  0  0  0  0  0  0
   -4.1297   -0.3209   -3.7954 F   0  0  0  0  0  0  0  0  0  0  0  0
   -4.1924    1.6469   -2.8982 F   0  0  0  0  0  0  0  0  0  0  0  0
   -2.9076    0.0945   -2.0585 F   0  0  0  0  0  0  0  0  0  0  0  0
   -2.4236    2.8629    0.2628 S   0  0  0  0  0  0  0  0  0  0  0  0
   -2.7326    3.6676    1.4275 O   0  0  0  0  0  0  0  0  0  0  0  0
   -2.6137    3.3950   -1.0694 O   0  0  0  0  0  0  0  0  0  0  0  0
   -0.7293    2.3507    0.3629 C   0  0  0  0  0  0  0  0  0  0  0  0
    0.0188    2.6100    1.5118 C   0  0  0  0  0  0  0  0  0  0  0  0
    1.3663    2.2409    1.5498 C   0  0  0  0  0  0  0  0  0  0  0  0
    1.9775    1.6286    0.4416 C   0  0  0  0  0  0  0  0  0  0  0  0
    3.4240    1.2504    0.5589 C   0  0  0  0  0  0  0  0  0  0  0  0
    4.0018    1.4623    1.6249 O   0  0  0  0  0  0  0  0  0  0  0  0
    4.1447    0.5939   -0.6203 C   0  0  0  0  0  0  0  0  0  0  0  0
    5.6606    0.8485   -0.5620 C   0  0  0  0  0  0  0  0  0  0  0  0
    6.4051   -0.0457    0.4287 C   0  0  0  0  0  0  0  0  0  0  0  0
    6.0363   -1.4724    0.2672 N   0  0  0  0  0  0  0  0  0  0  0  0
    6.8679   -2.4025   -0.8790 S   0  0  0  0  0  0  0  0  0  0  0  0
    8.4701   -2.5692   -0.1196 C   0  0  0  0  0  0  0  0  0  0  0  0
    7.0063   -1.6201   -2.0877 O   0  0  0  0  0  0  0  0  0  0  0  0
    6.2683   -3.7199   -0.9107 O   0  0  0  0  0  0  0  0  0  0  0  0
    4.5782   -1.6921    0.3856 C   0  0  0  0  0  0  0  0  0  0  0  0
    3.8307   -0.9054   -0.6849 C   0  0  0  0  0  0  0  0  0  0  0  0
    1.2191    1.4002   -0.7146 C   0  0  0  0  0  0  0  0  0  0  0  0
   -0.1301    1.7678   -0.7574 C   0  0  0  0  0  0  0  0  0  0  0  0
   -4.7367   -1.5873    1.6927 H   0  0  0  0  0  0  0  0  0  0  0  0
   -3.4361   -2.7503    1.4545 H   0  0  0  0  0  0  0  0  0  0  0  0
   -3.8565   -1.6620    0.1411 H   0  0  0  0  0  0  0  0  0  0  0  0
   -2.5945   -0.9841    2.8166 H   0  0  0  0  0  0  0  0  0  0  0  0
   -1.4564   -0.6990    0.0022 H   0  0  0  0  0  0  0  0  0  0  0  0
   -0.6273   -0.3145    1.5337 H   0  0  0  0  0  0  0  0  0  0  0  0
   -1.0762   -1.9729    1.1617 H   0  0  0  0  0  0  0  0  0  0  0  0
   -4.2019    0.7882    2.2841 H   0  0  0  0  0  0  0  0  0  0  0  0
   -2.5477    1.3094    2.3954 H   0  0  0  0  0  0  0  0  0  0  0  0
   -4.8289    2.4657   -0.7468 H   0  0  0  0  0  0  0  0  0  0  0  0
   -5.2709    2.1603    0.9063 H   0  0  0  0  0  0  0  0  0  0  0  0
   -6.9220    0.5632    1.2360 H   0  0  0  0  0  0  0  0  0  0  0  0
   -8.2905   -1.3325    0.4742 H   0  0  0  0  0  0  0  0  0  0  0  0
   -7.7618   -2.4787   -1.6581 H   0  0  0  0  0  0  0  0  0  0  0  0
   -5.8724   -1.7188   -3.0396 H   0  0  0  0  0  0  0  0  0  0  0  0
   -0.4293    3.0979    2.3749 H   0  0  0  0  0  0  0  0  0  0  0  0
    1.9420    2.4407    2.4531 H   0  0  0  0  0  0  0  0  0  0  0  0
    3.7924    1.0849   -1.5347 H   0  0  0  0  0  0  0  0  0  0  0  0
    6.0711    0.6889   -1.5659 H   0  0  0  0  0  0  0  0  0  0  0  0
    5.8621    1.8989   -0.3178 H   0  0  0  0  0  0  0  0  0  0  0  0
    7.4842    0.0896    0.3077 H   0  0  0  0  0  0  0  0  0  0  0  0
    6.1890    0.2466    1.4622 H   0  0  0  0  0  0  0  0  0  0  0  0
    9.0671   -3.2364   -0.7456 H   0  0  0  0  0  0  0  0  0  0  0  0
    8.3470   -3.0083    0.8721 H   0  0  0  0  0  0  0  0  0  0  0  0
    8.9542   -1.5940   -0.0629 H   0  0  0  0  0  0  0  0  0  0  0  0
    4.3359   -2.7572    0.3155 H   0  0  0  0  0  0  0  0  0  0  0  0
    4.2577   -1.3847    1.3884 H   0  0  0  0  0  0  0  0  0  0  0  0
    2.7567   -1.0888   -0.5714 H   0  0  0  0  0  0  0  0  0  0  0  0
    4.1102   -1.2821   -1.6767 H   0  0  0  0  0  0  0  0  0  0  0  0
    1.6418    0.9369   -1.6010 H   0  0  0  0  0  0  0  0  0  0  0  0
   -0.7113    1.5913   -1.6619 H   0  0  0  0  0  0  0  0  0  0  0  0
  1  2  1  0
  2  3  1  0
  2  4  1  0
  4  5  1  0
  5  6  1  0
  6  7  1  0
  7  8  2  0
  8  9  1  0
  9 10  2  0
 10 11  1  0
 11 12  2  0
 12 13  1  0
 13 14  1  0
 13 15  1  0
 13 16  1  0
  5 17  1  0
 17 18  2  0
 17 19  2  0
 17 20  1  0
 20 21  1  0
 21 22  2  0
 22 23  1  0
 23 24  1  0
 24 25  2  0
 24 26  1  0
 26 27  1  0
 27 28  1  0
 28 29  1  0
 29 30  1  0
 30 31  1  0
 30 32  2  0
 30 33  2  0
 29 34  1  0
 34 35  1  0
 23 36  2  0
 36 37  1  0
 12  7  1  0
 37 20  2  0
 35 26  1  0
  1 38  1  0
  1 39  1  0
  1 40  1  0
  2 41  1  0
  3 42  1  0
  3 43  1  0
  3 44  1  0
  4 45  1  0
  4 46  1  0
  6 47  1  0
  6 48  1  0
  8 49  1  0
  9 50  1  0
 10 51  1  0
 11 52  1  0
 21 53  1  0
 22 54  1  0
 26 55  1  0
 27 56  1  0
 27 57  1  0
 28 58  1  0
 28 59  1  0
 31 60  1  0
 31 61  1  0
 31 62  1  0
 34 63  1  0
 34 64  1  0
 35 65  1  0
 35 66  1  0
 36 67  1  0
 37 68  1  0
M  END
>  <QED>  (126) 
0.424

>  <MW>  (126) 
560.7

$$$$
CHEMBL3109228
     RDKit          3D

 58 61  0  0  0  0  0  0  0  0999 V2000
   -7.8676   -2.9406    0.5431 C   0  0  0  0  0  0  0  0  0  0  0  0
   -6.8202   -1.8918    0.2264 C   0  0  0  0  0  0  0  0  0  0  0  0
   -7.5292   -0.4960   -0.6281 S   0  0  0  0  0  0  0  0  0  0  0  0
   -7.9846   -0.9444   -1.9309 O   0  0  0  0  0  0  0  0  0  0  0  0
   -8.4244    0.1978    0.2777 O   0  0  0  0  0  0  0  0  0  0  0  0
   -6.1257    0.5647   -0.8919 C   0  0  0  0  0  0  0  0  0  0  0  0
   -5.5042    0.5993   -2.1421 C   0  0  0  0  0  0  0  0  0  0  0  0
   -4.4086    1.4412   -2.3424 C   0  0  0  0  0  0  0  0  0  0  0  0
   -3.9337    2.2493   -1.2986 C   0  0  0  0  0  0  0  0  0  0  0  0
   -2.7463    3.1604   -1.5085 C   0  0  0  0  0  0  0  0  0  0  0  0
   -1.5659    2.8152   -0.6108 C   0  0  0  0  0  0  0  0  0  0  0  0
   -1.2196    3.5773    0.2864 O   0  0  0  0  0  0  0  0  0  0  0  0
   -0.9788    1.6049   -0.9443 N   0  0  0  0  0  0  0  0  0  0  0  0
    0.1349    0.9881   -0.3362 C   0  0  0  0  0  0  0  0  0  0  0  0
    0.5143   -0.2635   -0.8331 C   0  0  0  0  0  0  0  0  0  0  0  0
    1.6057   -0.9669   -0.3076 C   0  0  0  0  0  0  0  0  0  0  0  0
    2.3205   -0.3780    0.7441 C   0  0  0  0  0  0  0  0  0  0  0  0
    1.9663    0.8694    1.2635 C   0  0  0  0  0  0  0  0  0  0  0  0
    2.8817    1.1679    2.3090 C   0  0  0  0  0  0  0  0  0  0  0  0
    3.7622    0.1163    2.4084 C   0  0  0  0  0  0  0  0  0  0  0  0
    3.4251   -0.8086    1.4536 N   0  0  0  0  0  0  0  0  0  0  0  0
    4.1241   -2.0691    1.2524 C   0  0  0  0  0  0  0  0  0  0  0  0
    5.0910   -2.0517    0.0661 C   0  0  0  0  0  0  0  0  0  0  0  0
    6.3483   -1.2589    0.3312 C   0  0  0  0  0  0  0  0  0  0  0  0
    7.4517   -1.8608    0.9514 C   0  0  0  0  0  0  0  0  0  0  0  0
    8.6059   -1.1207    1.2130 C   0  0  0  0  0  0  0  0  0  0  0  0
    8.6663    0.2265    0.8620 C   0  0  0  0  0  0  0  0  0  0  0  0
    7.5730    0.8354    0.2494 C   0  0  0  0  0  0  0  0  0  0  0  0
    6.4189    0.0971   -0.0152 C   0  0  0  0  0  0  0  0  0  0  0  0
    0.8622    1.5577    0.7139 C   0  0  0  0  0  0  0  0  0  0  0  0
   -4.5837    2.2168   -0.0546 C   0  0  0  0  0  0  0  0  0  0  0  0
   -5.6812    1.3803    0.1504 C   0  0  0  0  0  0  0  0  0  0  0  0
   -8.6578   -2.5290    1.1792 H   0  0  0  0  0  0  0  0  0  0  0  0
   -8.3373   -3.3177   -0.3710 H   0  0  0  0  0  0  0  0  0  0  0  0
   -7.4127   -3.7865    1.0673 H   0  0  0  0  0  0  0  0  0  0  0  0
   -6.3640   -1.5221    1.1494 H   0  0  0  0  0  0  0  0  0  0  0  0
   -6.0422   -2.3141   -0.4166 H   0  0  0  0  0  0  0  0  0  0  0  0
   -5.8703   -0.0118   -2.9647 H   0  0  0  0  0  0  0  0  0  0  0  0
   -3.9396    1.4698   -3.3242 H   0  0  0  0  0  0  0  0  0  0  0  0
   -3.0494    4.1963   -1.3131 H   0  0  0  0  0  0  0  0  0  0  0  0
   -2.4056    3.1305   -2.5508 H   0  0  0  0  0  0  0  0  0  0  0  0
   -1.4259    1.0779   -1.6837 H   0  0  0  0  0  0  0  0  0  0  0  0
   -0.0379   -0.7224   -1.6499 H   0  0  0  0  0  0  0  0  0  0  0  0
    1.8806   -1.9354   -0.7117 H   0  0  0  0  0  0  0  0  0  0  0  0
    2.8918    2.0598    2.9216 H   0  0  0  0  0  0  0  0  0  0  0  0
    4.6060   -0.0389    3.0686 H   0  0  0  0  0  0  0  0  0  0  0  0
    3.3546   -2.8343    1.0968 H   0  0  0  0  0  0  0  0  0  0  0  0
    4.6398   -2.3203    2.1871 H   0  0  0  0  0  0  0  0  0  0  0  0
    5.3783   -3.0843   -0.1709 H   0  0  0  0  0  0  0  0  0  0  0  0
    4.5998   -1.6672   -0.8365 H   0  0  0  0  0  0  0  0  0  0  0  0
    7.4217   -2.9104    1.2345 H   0  0  0  0  0  0  0  0  0  0  0  0
    9.4584   -1.5946    1.6926 H   0  0  0  0  0  0  0  0  0  0  0  0
    9.5640    0.8033    1.0682 H   0  0  0  0  0  0  0  0  0  0  0  0
    7.6155    1.8878   -0.0188 H   0  0  0  0  0  0  0  0  0  0  0  0
    5.5694    0.5916   -0.4831 H   0  0  0  0  0  0  0  0  0  0  0  0
    0.6081    2.5250    1.1312 H   0  0  0  0  0  0  0  0  0  0  0  0
   -4.2396    2.8521    0.7618 H   0  0  0  0  0  0  0  0  0  0  0  0
   -6.1841    1.3806    1.1153 H   0  0  0  0  0  0  0  0  0  0  0  0
  1  2  1  0
  2  3  1  0
  3  4  2  0
  3  5  2  0
  3  6  1  0
  6  7  1  0
  7  8  2  0
  8  9  1  0
  9 10  1  0
 10 11  1  0
 11 12  2  0
 11 13  1  0
 13 14  1  0
 14 15  2  0
 15 16  1  0
 16 17  2  0
 17 18  1  0
 18 19  1  0
 19 20  2  0
 20 21  1  0
 21 22  1  0
 22 23  1  0
 23 24  1  0
 24 25  2  0
 25 26  1  0
 26 27  2  0
 27 28  1  0
 28 29  2  0
 18 30  2  0
  9 31  2  0
 31 32  1  0
 32  6  2  0
 30 14  1  0
 21 17  1  0
 29 24  1  0
  1 33  1  0
  1 34  1  0
  1 35  1  0
  2 36  1  0
  2 37  1  0
  7 38  1  0
  8 39  1  0
 10 40  1  0
 10 41  1  0
 13 42  1  0
 15 43  1  0
 16 44  1  0
 19 45  1  0
 20 46  1  0
 22 47  1  0
 22 48  1  0
 23 49  1  0
 23 50  1  0
 25 51  1  0
 26 52  1  0
 27 53  1  0
 28 54  1  0
 29 55  1  0
 30 56  1  0
 31 57  1  0
 32 58  1  0
M  END
>  <QED>  (127) 
0.42

>  <MW>  (127) 
446.6

$$$$
CHEMBL3598141
     RDKit          3D

 43 46  0  0  0  0  0  0  0  0999 V2000
    5.3212   -3.6218   -4.1181 O   0  0  0  0  0  0  0  0  0  0  0  0
    5.4480   -2.6699   -3.3706 C   0  0  0  0  0  0  0  0  0  0  0  0
    6.6504   -2.1037   -3.1627 O   0  0  0  0  0  0  0  0  0  0  0  0
    4.3621   -2.0134   -2.6032 C   0  0  0  0  0  0  0  0  0  0  0  0
    3.0595   -2.5046   -2.7423 C   0  0  0  0  0  0  0  0  0  0  0  0
    2.0076   -1.9127   -2.0363 C   0  0  0  0  0  0  0  0  0  0  0  0
    2.2436   -0.8325   -1.1750 C   0  0  0  0  0  0  0  0  0  0  0  0
    1.1276   -0.2383   -0.4623 C   0  0  0  0  0  0  0  0  0  0  0  0
   -0.1016   -0.0673   -1.0469 N   0  0  0  0  0  0  0  0  0  0  0  0
   -0.8909    0.4650   -0.1266 C   0  0  0  0  0  0  0  0  0  0  0  0
   -2.2965    0.7090   -0.4014 C   0  0  0  0  0  0  0  0  0  0  0  0
   -2.7467    1.0408   -1.4976 O   0  0  0  0  0  0  0  0  0  0  0  0
   -3.3137    0.5489    0.6640 C   0  0  0  0  0  0  0  0  0  0  0  0
   -3.4857   -0.6833    1.3161 C   0  0  0  0  0  0  0  0  0  0  0  0
   -2.5476   -2.0868    0.9507 Cl  0  0  0  0  0  0  0  0  0  0  0  0
   -4.4772   -0.8256    2.2916 C   0  0  0  0  0  0  0  0  0  0  0  0
   -5.3125    0.2428    2.6082 C   0  0  0  0  0  0  0  0  0  0  0  0
   -5.1621    1.4614    1.9495 C   0  0  0  0  0  0  0  0  0  0  0  0
   -4.1634    1.6355    0.9730 C   0  0  0  0  0  0  0  0  0  0  0  0
   -4.0200    2.9781    0.2923 C   0  0  0  0  0  0  0  0  0  0  0  0
   -4.5974    3.0351   -0.9322 F   0  0  0  0  0  0  0  0  0  0  0  0
   -2.7203    3.3576    0.1540 F   0  0  0  0  0  0  0  0  0  0  0  0
   -4.5992    3.9814    1.0167 F   0  0  0  0  0  0  0  0  0  0  0  0
   -0.1817    0.7069    1.0416 N   0  0  0  0  0  0  0  0  0  0  0  0
   -0.5538    1.3423    2.2325 C   0  0  0  0  0  0  0  0  0  0  0  0
    0.3178    1.4125    3.2523 C   0  0  0  0  0  0  0  0  0  0  0  0
    1.6285    0.8091    3.1014 C   0  0  0  0  0  0  0  0  0  0  0  0
    2.0048    0.2240    1.9493 C   0  0  0  0  0  0  0  0  0  0  0  0
    1.1002    0.1899    0.8480 C   0  0  0  0  0  0  0  0  0  0  0  0
    3.5470   -0.3338   -1.0532 C   0  0  0  0  0  0  0  0  0  0  0  0
    4.6026   -0.9227   -1.7591 C   0  0  0  0  0  0  0  0  0  0  0  0
    7.2539   -2.6293   -3.7287 H   0  0  0  0  0  0  0  0  0  0  0  0
    2.8541   -3.3439   -3.4038 H   0  0  0  0  0  0  0  0  0  0  0  0
    0.9960   -2.2962   -2.1625 H   0  0  0  0  0  0  0  0  0  0  0  0
   -4.6169   -1.7786    2.7990 H   0  0  0  0  0  0  0  0  0  0  0  0
   -6.0902    0.1211    3.3601 H   0  0  0  0  0  0  0  0  0  0  0  0
   -5.8331    2.2838    2.2019 H   0  0  0  0  0  0  0  0  0  0  0  0
   -1.5347    1.7870    2.3023 H   0  0  0  0  0  0  0  0  0  0  0  0
    0.0727    1.9058    4.1869 H   0  0  0  0  0  0  0  0  0  0  0  0
    2.3034    0.8413    3.9519 H   0  0  0  0  0  0  0  0  0  0  0  0
    2.9863   -0.2307    1.8585 H   0  0  0  0  0  0  0  0  0  0  0  0
    3.7529    0.5314   -0.4278 H   0  0  0  0  0  0  0  0  0  0  0  0
    5.6050   -0.5159   -1.6502 H   0  0  0  0  0  0  0  0  0  0  0  0
  1  2  2  0
  2  3  1  0
  2  4  1  0
  4  5  1  0
  5  6  2  0
  6  7  1  0
  7  8  1  0
  8  9  1  0
  9 10  2  0
 10 11  1  0
 11 12  2  0
 11 13  1  0
 13 14  2  0
 14 15  1  0
 14 16  1  0
 16 17  2  0
 17 18  1  0
 18 19  2  0
 19 20  1  0
 20 21  1  0
 20 22  1  0
 20 23  1  0
 10 24  1  0
 24 25  1  0
 25 26  2  0
 26 27  1  0
 27 28  2  0
 28 29  1  0
  7 30  2  0
 30 31  1  0
 31  4  2  0
 29  8  2  0
 19 13  1  0
 29 24  1  0
  3 32  1  0
  5 33  1  0
  6 34  1  0
 16 35  1  0
 17 36  1  0
 18 37  1  0
 25 38  1  0
 26 39  1  0
 27 40  1  0
 28 41  1  0
 30 42  1  0
 31 43  1  0
M  END
>  <QED>  (128) 
0.416

>  <MW>  (128) 
444.8

$$$$
CHEMBL3105673
     RDKit          3D

 62 65  0  0  0  0  0  0  0  0999 V2000
    9.6213    0.4130   -1.6807 C   0  0  0  0  0  0  0  0  0  0  0  0
    8.4159    0.6037   -0.7819 C   0  0  0  0  0  0  0  0  0  0  0  0
    6.9941   -0.2791   -1.3980 S   0  0  0  0  0  0  0  0  0  0  0  0
    7.2638   -1.7020   -1.3116 O   0  0  0  0  0  0  0  0  0  0  0  0
    6.5789    0.3272   -2.6485 O   0  0  0  0  0  0  0  0  0  0  0  0
    5.7408    0.0942   -0.1913 C   0  0  0  0  0  0  0  0  0  0  0  0
    4.9628    1.2436   -0.3414 C   0  0  0  0  0  0  0  0  0  0  0  0
    3.9741    1.5303    0.6006 C   0  0  0  0  0  0  0  0  0  0  0  0
    3.7471    0.6640    1.6819 C   0  0  0  0  0  0  0  0  0  0  0  0
    2.6677    0.9752    2.6934 C   0  0  0  0  0  0  0  0  0  0  0  0
    1.2730    1.0690    2.0897 C   0  0  0  0  0  0  0  0  0  0  0  0
    0.6168    2.0997    2.2073 O   0  0  0  0  0  0  0  0  0  0  0  0
    0.8773   -0.0992    1.4769 N   0  0  0  0  0  0  0  0  0  0  0  0
   -0.3164   -0.3469    0.8530 C   0  0  0  0  0  0  0  0  0  0  0  0
   -0.5465   -1.5030    0.2864 N   0  0  0  0  0  0  0  0  0  0  0  0
   -1.8230   -1.5163   -0.2666 C   0  0  0  0  0  0  0  0  0  0  0  0
   -2.2887   -2.7267   -0.9317 C   0  0  0  0  0  0  0  0  0  0  0  0
   -3.5304   -3.3016   -0.6316 C   0  0  0  0  0  0  0  0  0  0  0  0
   -3.9356   -4.4789   -1.2662 C   0  0  0  0  0  0  0  0  0  0  0  0
   -3.0992   -5.0971   -2.1943 C   0  0  0  0  0  0  0  0  0  0  0  0
   -1.8546   -4.5431   -2.4868 C   0  0  0  0  0  0  0  0  0  0  0  0
   -1.4490   -3.3658   -1.8543 C   0  0  0  0  0  0  0  0  0  0  0  0
   -2.5403   -0.3354   -0.1208 C   0  0  0  0  0  0  0  0  0  0  0  0
   -3.8508    0.0334   -0.6393 C   0  0  0  0  0  0  0  0  0  0  0  0
   -4.3265   -0.4911   -1.6488 O   0  0  0  0  0  0  0  0  0  0  0  0
   -4.6670    1.1072    0.0926 C   0  0  0  0  0  0  0  0  0  0  0  0
   -4.5819    2.4367   -0.6666 C   0  0  0  0  0  0  0  0  0  0  0  0
   -5.4420    3.5137   -0.0096 C   0  0  0  0  0  0  0  0  0  0  0  0
   -6.8901    3.0602    0.1516 C   0  0  0  0  0  0  0  0  0  0  0  0
   -6.9854    1.7319    0.8966 C   0  0  0  0  0  0  0  0  0  0  0  0
   -6.1298    0.6555    0.2331 C   0  0  0  0  0  0  0  0  0  0  0  0
   -1.5758    0.7823    0.7629 S   0  0  0  0  0  0  0  0  0  0  0  0
    4.5330   -0.4910    1.8130 C   0  0  0  0  0  0  0  0  0  0  0  0
    5.5248   -0.7815    0.8748 C   0  0  0  0  0  0  0  0  0  0  0  0
    9.4195    0.7764   -2.6933 H   0  0  0  0  0  0  0  0  0  0  0  0
    9.8953   -0.6444   -1.7539 H   0  0  0  0  0  0  0  0  0  0  0  0
   10.4813    0.9622   -1.2855 H   0  0  0  0  0  0  0  0  0  0  0  0
    8.6292    0.2294    0.2238 H   0  0  0  0  0  0  0  0  0  0  0  0
    8.1504    1.6634   -0.7237 H   0  0  0  0  0  0  0  0  0  0  0  0
    5.1120    1.9141   -1.1855 H   0  0  0  0  0  0  0  0  0  0  0  0
    3.3737    2.4319    0.4801 H   0  0  0  0  0  0  0  0  0  0  0  0
    2.6400    0.2172    3.4858 H   0  0  0  0  0  0  0  0  0  0  0  0
    2.9072    1.9286    3.1800 H   0  0  0  0  0  0  0  0  0  0  0  0
    1.5250   -0.8729    1.4073 H   0  0  0  0  0  0  0  0  0  0  0  0
   -4.1960   -2.8442    0.0950 H   0  0  0  0  0  0  0  0  0  0  0  0
   -4.9056   -4.9121   -1.0364 H   0  0  0  0  0  0  0  0  0  0  0  0
   -3.4170   -6.0114   -2.6887 H   0  0  0  0  0  0  0  0  0  0  0  0
   -1.1985   -5.0255   -3.2063 H   0  0  0  0  0  0  0  0  0  0  0  0
   -0.4723   -2.9459   -2.0857 H   0  0  0  0  0  0  0  0  0  0  0  0
   -4.2811    1.2405    1.1097 H   0  0  0  0  0  0  0  0  0  0  0  0
   -3.5432    2.7829   -0.7166 H   0  0  0  0  0  0  0  0  0  0  0  0
   -4.9075    2.2962   -1.7056 H   0  0  0  0  0  0  0  0  0  0  0  0
   -5.0257    3.7617    0.9745 H   0  0  0  0  0  0  0  0  0  0  0  0
   -5.4079    4.4295   -0.6104 H   0  0  0  0  0  0  0  0  0  0  0  0
   -7.4589    3.8267    0.6899 H   0  0  0  0  0  0  0  0  0  0  0  0
   -7.3513    2.9563   -0.8383 H   0  0  0  0  0  0  0  0  0  0  0  0
   -6.6587    1.8703    1.9346 H   0  0  0  0  0  0  0  0  0  0  0  0
   -8.0300    1.4030    0.9316 H   0  0  0  0  0  0  0  0  0  0  0  0
   -6.1787   -0.2688    0.8217 H   0  0  0  0  0  0  0  0  0  0  0  0
   -6.5542    0.4189   -0.7511 H   0  0  0  0  0  0  0  0  0  0  0  0
    4.3786   -1.1771    2.6441 H   0  0  0  0  0  0  0  0  0  0  0  0
    6.1162   -1.6890    0.9804 H   0  0  0  0  0  0  0  0  0  0  0  0
  1  2  1  0
  2  3  1  0
  3  4  2  0
  3  5  2  0
  3  6  1  0
  6  7  1  0
  7  8  2  0
  8  9  1  0
  9 10  1  0
 10 11  1  0
 11 12  2  0
 11 13  1  0
 13 14  1  0
 14 15  2  0
 15 16  1  0
 16 17  1  0
 17 18  2  0
 18 19  1  0
 19 20  2  0
 20 21  1  0
 21 22  2  0
 16 23  2  0
 23 24  1  0
 24 25  2  0
 24 26  1  0
 26 27  1  0
 27 28  1  0
 28 29  1  0
 29 30  1  0
 30 31  1  0
 23 32  1  0
  9 33  2  0
 33 34  1  0
 34  6  2  0
 32 14  1  0
 22 17  1  0
 31 26  1  0
  1 35  1  0
  1 36  1  0
  1 37  1  0
  2 38  1  0
  2 39  1  0
  7 40  1  0
  8 41  1  0
 10 42  1  0
 10 43  1  0
 13 44  1  0
 18 45  1  0
 19 46  1  0
 20 47  1  0
 21 48  1  0
 22 49  1  0
 26 50  1  0
 27 51  1  0
 27 52  1  0
 28 53  1  0
 28 54  1  0
 29 55  1  0
 29 56  1  0
 30 57  1  0
 30 58  1  0
 31 59  1  0
 31 60  1  0
 33 61  1  0
 34 62  1  0
M  END
>  <QED>  (129) 
0.413

>  <MW>  (129) 
496.7

$$$$
CHEMBL3314011
     RDKit          3D

 66 69  0  0  0  0  0  0  0  0999 V2000
   -8.9247   -0.3818   -0.6818 C   0  0  0  0  0  0  0  0  0  0  0  0
   -8.0851    0.7160   -0.0945 C   0  0  0  0  0  0  0  0  0  0  0  0
   -8.6727    1.9222    0.2999 C   0  0  0  0  0  0  0  0  0  0  0  0
   -7.8842    2.9502    0.8134 C   0  0  0  0  0  0  0  0  0  0  0  0
   -6.5030    2.7779    0.9247 C   0  0  0  0  0  0  0  0  0  0  0  0
   -5.5700    4.0878    1.5694 Cl  0  0  0  0  0  0  0  0  0  0  0  0
   -5.8861    1.5787    0.5224 C   0  0  0  0  0  0  0  0  0  0  0  0
   -4.4806    1.4692    0.6564 N   0  0  0  0  0  0  0  0  0  0  0  0
   -3.6725    0.3906    0.3487 C   0  0  0  0  0  0  0  0  0  0  0  0
   -4.0386   -0.6775   -0.1272 O   0  0  0  0  0  0  0  0  0  0  0  0
   -2.2094    0.6875    0.6314 C   0  0  0  0  0  0  0  0  0  0  0  0
   -1.3037   -0.5638    0.6105 C   0  0  2  0  0  0  0  0  0  0  0  0
   -1.3329   -1.3250    1.9458 C   0  0  0  0  0  0  0  0  0  0  0  0
   -2.5450   -2.1963    2.0609 C   0  0  0  0  0  0  0  0  0  0  0  0
   -2.6665   -3.3190    1.6009 O   0  0  0  0  0  0  0  0  0  0  0  0
   -3.5500   -1.5998    2.7279 O   0  0  0  0  0  0  0  0  0  0  0  0
    0.1139   -0.1759    0.2867 C   0  0  0  0  0  0  0  0  0  0  0  0
    0.7279    0.7886    0.9876 N   0  0  0  0  0  0  0  0  0  0  0  0
    1.9902    0.9135    0.4357 O   0  0  0  0  0  0  0  0  0  0  0  0
    2.1348    0.0273   -0.5885 C   0  0  0  0  0  0  0  0  0  0  0  0
    3.4119   -0.1084   -1.4558 C   0  0  1  0  0  0  0  0  0  0  0  0
    4.3191    1.1481   -1.5039 C   0  0  0  0  0  0  0  0  0  0  0  0
    5.5334    0.1791   -1.4650 C   0  0  1  0  0  0  0  0  0  0  0  0
    6.8435    0.6667   -0.8453 C   0  0  0  0  0  0  0  0  0  0  0  0
    6.7676    0.9728    0.6618 C   0  0  0  0  0  0  0  0  0  0  0  0
    7.6588    2.1700    1.0063 C   0  0  0  0  0  0  0  0  0  0  0  0
    7.2069   -0.2354    1.4953 C   0  0  0  0  0  0  0  0  0  0  0  0
    4.5900   -0.8341   -0.7576 C   0  0  0  0  0  0  0  0  0  0  0  0
    0.9778   -0.7007   -0.6996 C   0  0  0  0  0  0  0  0  0  0  0  0
    0.6675   -1.8156   -1.7194 C   0  0  0  0  0  0  0  0  0  0  0  0
    0.1913   -3.1604   -1.2323 C   0  0  0  0  0  0  0  0  0  0  0  0
    1.5698   -3.0204   -1.8021 C   0  0  0  0  0  0  0  0  0  0  0  0
   -6.6919    0.5577    0.0083 C   0  0  0  0  0  0  0  0  0  0  0  0
   -8.5193   -1.3646   -0.4197 H   0  0  0  0  0  0  0  0  0  0  0  0
   -9.9490   -0.3405   -0.2968 H   0  0  0  0  0  0  0  0  0  0  0  0
   -8.9533   -0.2878   -1.7717 H   0  0  0  0  0  0  0  0  0  0  0  0
   -9.7472    2.0673    0.2091 H   0  0  0  0  0  0  0  0  0  0  0  0
   -8.3509    3.8821    1.1216 H   0  0  0  0  0  0  0  0  0  0  0  0
   -4.0299    2.2937    1.0433 H   0  0  0  0  0  0  0  0  0  0  0  0
   -2.1223    1.2071    1.5940 H   0  0  0  0  0  0  0  0  0  0  0  0
   -1.8933    1.3928   -0.1495 H   0  0  0  0  0  0  0  0  0  0  0  0
   -1.6510   -1.2334   -0.1861 H   0  0  0  0  0  0  0  0  0  0  0  0
   -1.2801   -0.6479    2.8072 H   0  0  0  0  0  0  0  0  0  0  0  0
   -0.4653   -1.9911    2.0438 H   0  0  0  0  0  0  0  0  0  0  0  0
   -4.2986   -2.2266    2.6299 H   0  0  0  0  0  0  0  0  0  0  0  0
    3.2019   -0.5025   -2.4591 H   0  0  0  0  0  0  0  0  0  0  0  0
    4.2358    1.7497   -2.4140 H   0  0  0  0  0  0  0  0  0  0  0  0
    4.2390    1.8181   -0.6410 H   0  0  0  0  0  0  0  0  0  0  0  0
    5.7713   -0.1669   -2.4850 H   0  0  0  0  0  0  0  0  0  0  0  0
    7.6263   -0.0797   -1.0312 H   0  0  0  0  0  0  0  0  0  0  0  0
    7.1513    1.5651   -1.3958 H   0  0  0  0  0  0  0  0  0  0  0  0
    5.7446    1.2349    0.9520 H   0  0  0  0  0  0  0  0  0  0  0  0
    7.6175    2.3908    2.0782 H   0  0  0  0  0  0  0  0  0  0  0  0
    7.3288    3.0660    0.4699 H   0  0  0  0  0  0  0  0  0  0  0  0
    8.7038    1.9787    0.7390 H   0  0  0  0  0  0  0  0  0  0  0  0
    6.6120   -1.1236    1.2661 H   0  0  0  0  0  0  0  0  0  0  0  0
    8.2584   -0.4826    1.3117 H   0  0  0  0  0  0  0  0  0  0  0  0
    7.0949   -0.0266    2.5647 H   0  0  0  0  0  0  0  0  0  0  0  0
    4.5616   -0.7703    0.3349 H   0  0  0  0  0  0  0  0  0  0  0  0
    4.7359   -1.8798   -1.0426 H   0  0  0  0  0  0  0  0  0  0  0  0
    0.2412   -1.4571   -2.6522 H   0  0  0  0  0  0  0  0  0  0  0  0
   -0.5581   -3.6753   -1.8235 H   0  0  0  0  0  0  0  0  0  0  0  0
    0.1060   -3.3445   -0.1673 H   0  0  0  0  0  0  0  0  0  0  0  0
    2.4020   -3.1098   -1.1136 H   0  0  0  0  0  0  0  0  0  0  0  0
    1.7596   -3.4443   -2.7815 H   0  0  0  0  0  0  0  0  0  0  0  0
   -6.2608   -0.3811   -0.3271 H   0  0  0  0  0  0  0  0  0  0  0  0
  1  2  1  0
  2  3  1  0
  3  4  2  0
  4  5  1  0
  5  6  1  0
  5  7  2  0
  7  8  1  0
  8  9  1  0
  9 10  2  0
  9 11  1  0
 11 12  1  0
 12 13  1  0
 13 14  1  0
 14 15  2  0
 14 16  1  0
 12 17  1  0
 17 18  2  0
 18 19  1  0
 19 20  1  0
 20 21  1  0
 21 22  1  0
 22 23  1  0
 23 24  1  0
 24 25  1  0
 25 26  1  0
 25 27  1  0
 23 28  1  0
 20 29  2  0
 29 30  1  0
 30 31  1  0
 31 32  1  0
  7 33  1  0
 33  2  2  0
 29 17  1  0
 32 30  1  0
 28 21  1  0
  1 34  1  0
  1 35  1  0
  1 36  1  0
  3 37  1  0
  4 38  1  0
  8 39  1  0
 11 40  1  0
 11 41  1  0
 12 42  1  6
 13 43  1  0
 13 44  1  0
 16 45  1  0
 21 46  1  6
 22 47  1  0
 22 48  1  0
 23 49  1  6
 24 50  1  0
 24 51  1  0
 25 52  1  0
 26 53  1  0
 26 54  1  0
 26 55  1  0
 27 56  1  0
 27 57  1  0
 27 58  1  0
 28 59  1  0
 28 60  1  0
 30 61  1  0
 31 62  1  0
 31 63  1  0
 32 64  1  0
 32 65  1  0
 33 66  1  0
M  END
>  <QED>  (130) 
0.404

>  <MW>  (130) 
473.0

$$$$
CHEMBL3598148
     RDKit          3D

 44 47  0  0  0  0  0  0  0  0999 V2000
    7.5683    0.2530    0.8110 O   0  0  0  0  0  0  0  0  0  0  0  0
    6.8802   -0.0232   -0.1575 C   0  0  0  0  0  0  0  0  0  0  0  0
    7.4240   -0.3085   -1.3523 O   0  0  0  0  0  0  0  0  0  0  0  0
    5.4019   -0.0821   -0.1436 C   0  0  0  0  0  0  0  0  0  0  0  0
    4.6774   -0.3950   -1.3015 C   0  0  0  0  0  0  0  0  0  0  0  0
    3.2793   -0.4453   -1.2653 C   0  0  0  0  0  0  0  0  0  0  0  0
    2.5894   -0.1905   -0.0729 C   0  0  0  0  0  0  0  0  0  0  0  0
    1.1408   -0.2258   -0.0141 C   0  0  0  0  0  0  0  0  0  0  0  0
    0.4124    0.7367    0.6350 N   0  0  0  0  0  0  0  0  0  0  0  0
   -0.8639    0.4271    0.4652 C   0  0  0  0  0  0  0  0  0  0  0  0
   -1.9139    1.3070    0.9494 C   0  0  0  0  0  0  0  0  0  0  0  0
   -1.8368    1.9911    1.9695 O   0  0  0  0  0  0  0  0  0  0  0  0
   -3.1862    1.4496    0.2036 C   0  0  0  0  0  0  0  0  0  0  0  0
   -3.1954    1.8983   -1.1274 C   0  0  0  0  0  0  0  0  0  0  0  0
   -1.7614    2.3044   -2.0002 Cl  0  0  0  0  0  0  0  0  0  0  0  0
   -4.4096    2.0649   -1.8007 C   0  0  0  0  0  0  0  0  0  0  0  0
   -5.6154    1.8080   -1.1533 C   0  0  0  0  0  0  0  0  0  0  0  0
   -5.6147    1.3829    0.1736 C   0  0  0  0  0  0  0  0  0  0  0  0
   -4.4063    1.1943    0.8705 C   0  0  0  0  0  0  0  0  0  0  0  0
   -4.4466    0.7147    2.3042 C   0  0  0  0  0  0  0  0  0  0  0  0
   -4.3014    1.7055    3.2169 F   0  0  0  0  0  0  0  0  0  0  0  0
   -5.6349    0.1114    2.6059 F   0  0  0  0  0  0  0  0  0  0  0  0
   -3.5031   -0.2304    2.5661 F   0  0  0  0  0  0  0  0  0  0  0  0
   -0.9859   -0.7851   -0.2007 N   0  0  0  0  0  0  0  0  0  0  0  0
   -2.1109   -1.5588   -0.5112 C   0  0  0  0  0  0  0  0  0  0  0  0
   -1.9633   -2.7149   -1.1792 C   0  0  0  0  0  0  0  0  0  0  0  0
   -0.6306   -3.1457   -1.5568 C   0  0  0  0  0  0  0  0  0  0  0  0
    0.4584   -2.4201   -1.2427 C   0  0  0  0  0  0  0  0  0  0  0  0
    0.3068   -1.1912   -0.5363 C   0  0  0  0  0  0  0  0  0  0  0  0
    3.3155    0.1396    1.0784 C   0  0  0  0  0  0  0  0  0  0  0  0
    4.7097    0.1863    1.0450 C   0  0  0  0  0  0  0  0  0  0  0  0
    5.3316    0.5034    2.2245 O   0  0  0  0  0  0  0  0  0  0  0  0
    8.3902   -0.2261   -1.2081 H   0  0  0  0  0  0  0  0  0  0  0  0
    5.1882   -0.5933   -2.2408 H   0  0  0  0  0  0  0  0  0  0  0  0
    2.7361   -0.6629   -2.1820 H   0  0  0  0  0  0  0  0  0  0  0  0
   -4.4234    2.4149   -2.8315 H   0  0  0  0  0  0  0  0  0  0  0  0
   -6.5572    1.9517   -1.6799 H   0  0  0  0  0  0  0  0  0  0  0  0
   -6.5691    1.1974    0.6687 H   0  0  0  0  0  0  0  0  0  0  0  0
   -3.0833   -1.2212   -0.1872 H   0  0  0  0  0  0  0  0  0  0  0  0
   -2.8083   -3.3483   -1.4277 H   0  0  0  0  0  0  0  0  0  0  0  0
   -0.5331   -4.0890   -2.0864 H   0  0  0  0  0  0  0  0  0  0  0  0
    1.4494   -2.7735   -1.5094 H   0  0  0  0  0  0  0  0  0  0  0  0
    2.7936    0.3634    2.0073 H   0  0  0  0  0  0  0  0  0  0  0  0
    6.3018    0.5252    2.0797 H   0  0  0  0  0  0  0  0  0  0  0  0
  1  2  2  0
  2  3  1  0
  2  4  1  0
  4  5  1  0
  5  6  2  0
  6  7  1  0
  7  8  1  0
  8  9  1  0
  9 10  2  0
 10 11  1  0
 11 12  2  0
 11 13  1  0
 13 14  2  0
 14 15  1  0
 14 16  1  0
 16 17  2  0
 17 18  1  0
 18 19  2  0
 19 20  1  0
 20 21  1  0
 20 22  1  0
 20 23  1  0
 10 24  1  0
 24 25  1  0
 25 26  2  0
 26 27  1  0
 27 28  2  0
 28 29  1  0
  7 30  2  0
 30 31  1  0
 31 32  1  0
 31  4  2  0
 29  8  2  0
 19 13  1  0
 29 24  1  0
  3 33  1  0
  5 34  1  0
  6 35  1  0
 16 36  1  0
 17 37  1  0
 18 38  1  0
 25 39  1  0
 26 40  1  0
 27 41  1  0
 28 42  1  0
 30 43  1  0
 32 44  1  0
M  END
>  <QED>  (131) 
0.403

>  <MW>  (131) 
460.8

$$$$
CHEMBL1494527
     RDKit          3D

 56 60  0  0  0  0  0  0  0  0999 V2000
    6.2918    0.0322   -2.3459 C   0  0  0  0  0  0  0  0  0  0  0  0
    6.3996    0.5014   -0.9044 C   0  0  0  0  0  0  0  0  0  0  0  0
    5.3053    0.0216   -0.0966 N   0  0  0  0  0  0  0  0  0  0  0  0
    5.3031   -1.1733    0.6158 C   0  0  0  0  0  0  0  0  0  0  0  0
    6.1840   -2.0007    0.7420 O   0  0  0  0  0  0  0  0  0  0  0  0
    3.9546   -1.2641    1.2140 C   0  0  0  0  0  0  0  0  0  0  0  0
    3.3822   -2.2187    2.0284 C   0  0  0  0  0  0  0  0  0  0  0  0
    2.0567   -2.0102    2.4304 C   0  0  0  0  0  0  0  0  0  0  0  0
    1.3354   -0.8686    2.0069 C   0  0  0  0  0  0  0  0  0  0  0  0
    1.9276    0.1100    1.1565 C   0  0  0  0  0  0  0  0  0  0  0  0
    1.4162    1.3120    0.5894 C   0  0  0  0  0  0  0  0  0  0  0  0
   -0.2704    1.7986    0.8917 S   0  0  0  0  0  0  0  0  0  0  0  0
   -0.5376    3.0214    0.1593 O   0  0  0  0  0  0  0  0  0  0  0  0
   -0.4485    1.7602    2.3312 O   0  0  0  0  0  0  0  0  0  0  0  0
   -1.1867    0.5272    0.1936 N   0  0  0  0  0  0  0  0  0  0  0  0
   -0.8914    0.1058   -1.1386 C   0  0  0  0  0  0  0  0  0  0  0  0
   -0.1275    0.7016   -1.8865 O   0  0  0  0  0  0  0  0  0  0  0  0
   -1.5023   -1.1723   -1.6011 C   0  0  0  0  0  0  0  0  0  0  0  0
   -1.7013   -1.3474   -2.9723 C   0  0  0  0  0  0  0  0  0  0  0  0
   -2.2686   -2.5321   -3.4007 C   0  0  0  0  0  0  0  0  0  0  0  0
   -2.6358   -3.5269   -2.5663 N   0  0  0  0  0  0  0  0  0  0  0  0
   -2.4194   -3.3397   -1.2475 C   0  0  0  0  0  0  0  0  0  0  0  0
   -1.8564   -2.1930   -0.7181 C   0  0  0  0  0  0  0  0  0  0  0  0
   -2.6028    0.6905    0.4576 C   0  0  0  0  0  0  0  0  0  0  0  0
   -3.1339    0.1677    1.6379 C   0  0  0  0  0  0  0  0  0  0  0  0
   -4.4865    0.3478    1.9346 C   0  0  0  0  0  0  0  0  0  0  0  0
   -5.3153    1.0734    1.0753 C   0  0  0  0  0  0  0  0  0  0  0  0
   -6.6156    1.1705    1.4852 O   0  0  0  0  0  0  0  0  0  0  0  0
   -7.4940    1.9348    0.6684 C   0  0  0  0  0  0  0  0  0  0  0  0
   -4.7752    1.6321   -0.0832 C   0  0  0  0  0  0  0  0  0  0  0  0
   -3.4206    1.4522   -0.3852 C   0  0  0  0  0  0  0  0  0  0  0  0
    2.2239    2.1419   -0.2321 C   0  0  0  0  0  0  0  0  0  0  0  0
    3.5526    1.7972   -0.5269 C   0  0  0  0  0  0  0  0  0  0  0  0
    4.0448    0.6282    0.0125 C   0  0  0  0  0  0  0  0  0  0  0  0
    3.2503   -0.1586    0.8095 C   0  0  0  0  0  0  0  0  0  0  0  0
    6.2747   -1.0613   -2.4025 H   0  0  0  0  0  0  0  0  0  0  0  0
    7.1455    0.3923   -2.9282 H   0  0  0  0  0  0  0  0  0  0  0  0
    5.3759    0.4046   -2.8160 H   0  0  0  0  0  0  0  0  0  0  0  0
    7.3337    0.1197   -0.4766 H   0  0  0  0  0  0  0  0  0  0  0  0
    6.4383    1.5947   -0.8535 H   0  0  0  0  0  0  0  0  0  0  0  0
    3.9450   -3.0901    2.3467 H   0  0  0  0  0  0  0  0  0  0  0  0
    1.5758   -2.7343    3.0859 H   0  0  0  0  0  0  0  0  0  0  0  0
    0.3149   -0.7473    2.3642 H   0  0  0  0  0  0  0  0  0  0  0  0
   -1.4226   -0.5825   -3.6902 H   0  0  0  0  0  0  0  0  0  0  0  0
   -2.4481   -2.7211   -4.4557 H   0  0  0  0  0  0  0  0  0  0  0  0
   -2.7165   -4.1673   -0.6086 H   0  0  0  0  0  0  0  0  0  0  0  0
   -1.6889   -2.1215    0.3496 H   0  0  0  0  0  0  0  0  0  0  0  0
   -2.5044   -0.3751    2.3376 H   0  0  0  0  0  0  0  0  0  0  0  0
   -4.8971   -0.0685    2.8519 H   0  0  0  0  0  0  0  0  0  0  0  0
   -8.4828    1.9210    1.1369 H   0  0  0  0  0  0  0  0  0  0  0  0
   -7.1686    2.9786    0.6076 H   0  0  0  0  0  0  0  0  0  0  0  0
   -7.5913    1.4915   -0.3281 H   0  0  0  0  0  0  0  0  0  0  0  0
   -5.3754    2.2246   -0.7661 H   0  0  0  0  0  0  0  0  0  0  0  0
   -3.0136    1.9296   -1.2743 H   0  0  0  0  0  0  0  0  0  0  0  0
    1.8111    3.0546   -0.6610 H   0  0  0  0  0  0  0  0  0  0  0  0
    4.1558    2.4349   -1.1631 H   0  0  0  0  0  0  0  0  0  0  0  0
  1  2  1  0
  2  3  1  0
  3  4  1  0
  4  5  2  0
  4  6  1  0
  6  7  1  0
  7  8  2  0
  8  9  1  0
  9 10  2  0
 10 11  1  0
 11 12  1  0
 12 13  2  0
 12 14  2  0
 12 15  1  0
 15 16  1  0
 16 17  2  0
 16 18  1  0
 18 19  2  0
 19 20  1  0
 20 21  2  0
 21 22  1  0
 22 23  2  0
 15 24  1  0
 24 25  1  0
 25 26  2  0
 26 27  1  0
 27 28  1  0
 28 29  1  0
 27 30  2  0
 30 31  1  0
 11 32  2  0
 32 33  1  0
 33 34  2  0
 34 35  1  0
 34  3  1  0
 35  6  2  0
 35 10  1  0
 23 18  1  0
 31 24  2  0
  1 36  1  0
  1 37  1  0
  1 38  1  0
  2 39  1  0
  2 40  1  0
  7 41  1  0
  8 42  1  0
  9 43  1  0
 19 44  1  0
 20 45  1  0
 22 46  1  0
 23 47  1  0
 25 48  1  0
 26 49  1  0
 29 50  1  0
 29 51  1  0
 29 52  1  0
 30 53  1  0
 31 54  1  0
 32 55  1  0
 33 56  1  0
M  END
>  <QED>  (132) 
0.403

>  <MW>  (132) 
487.5

$$$$
CHEMBL3109231
     RDKit          3D

 59 62  0  0  0  0  0  0  0  0999 V2000
   -8.5113   -1.8070    0.5351 C   0  0  0  0  0  0  0  0  0  0  0  0
   -7.6628   -2.2799   -0.6273 C   0  0  0  0  0  0  0  0  0  0  0  0
   -6.0451   -2.8452   -0.1428 S   0  0  0  0  0  0  0  0  0  0  0  0
   -5.3038   -3.1698   -1.3472 O   0  0  0  0  0  0  0  0  0  0  0  0
   -6.1997   -3.8305    0.9113 O   0  0  0  0  0  0  0  0  0  0  0  0
   -5.2635   -1.4141    0.5654 C   0  0  0  0  0  0  0  0  0  0  0  0
   -4.7771   -0.4146   -0.2799 C   0  0  0  0  0  0  0  0  0  0  0  0
   -4.1519    0.7047    0.2703 C   0  0  0  0  0  0  0  0  0  0  0  0
   -3.9919    0.8201    1.6603 C   0  0  0  0  0  0  0  0  0  0  0  0
   -3.3001    2.0283    2.2529 C   0  0  0  0  0  0  0  0  0  0  0  0
   -1.8828    2.2579    1.7415 C   0  0  0  0  0  0  0  0  0  0  0  0
   -1.5438    3.3695    1.3450 O   0  0  0  0  0  0  0  0  0  0  0  0
   -1.0784    1.1337    1.8276 N   0  0  0  0  0  0  0  0  0  0  0  0
    0.2818    1.0143    1.4717 C   0  0  0  0  0  0  0  0  0  0  0  0
    0.8516   -0.2593    1.5727 C   0  0  0  0  0  0  0  0  0  0  0  0
    2.1925   -0.4965    1.2445 C   0  0  0  0  0  0  0  0  0  0  0  0
    2.9627    0.5895    0.8076 C   0  0  0  0  0  0  0  0  0  0  0  0
    2.4253    1.8745    0.7024 C   0  0  0  0  0  0  0  0  0  0  0  0
    3.4638    2.7313    0.2464 C   0  0  0  0  0  0  0  0  0  0  0  0
    4.5958    1.9680    0.0824 C   0  0  0  0  0  0  0  0  0  0  0  0
    4.2825    0.6732    0.4088 N   0  0  0  0  0  0  0  0  0  0  0  0
    5.2239   -0.4350    0.3543 C   0  0  0  0  0  0  0  0  0  0  0  0
    5.0473   -1.3287   -0.8764 C   0  0  0  0  0  0  0  0  0  0  0  0
    5.4767   -0.6679   -2.1657 C   0  0  0  0  0  0  0  0  0  0  0  0
    6.8159   -0.7109   -2.5759 C   0  0  0  0  0  0  0  0  0  0  0  0
    7.2133   -0.0820   -3.7587 C   0  0  0  0  0  0  0  0  0  0  0  0
    6.2765    0.6003   -4.5411 C   0  0  0  0  0  0  0  0  0  0  0  0
    6.6861    1.2467   -5.7533 C   0  0  0  0  0  0  0  0  0  0  0  0
    7.0229    1.7674   -6.7345 N   0  0  0  0  0  0  0  0  0  0  0  0
    4.9404    0.6506   -4.1348 C   0  0  0  0  0  0  0  0  0  0  0  0
    4.5433    0.0197   -2.9536 C   0  0  0  0  0  0  0  0  0  0  0  0
    1.0697    2.0854    1.0380 C   0  0  0  0  0  0  0  0  0  0  0  0
   -4.4818   -0.1961    2.4946 C   0  0  0  0  0  0  0  0  0  0  0  0
   -5.1105   -1.3168    1.9499 C   0  0  0  0  0  0  0  0  0  0  0  0
   -8.0694   -0.9348    1.0256 H   0  0  0  0  0  0  0  0  0  0  0  0
   -8.6286   -2.5928    1.2877 H   0  0  0  0  0  0  0  0  0  0  0  0
   -9.5080   -1.5232    0.1831 H   0  0  0  0  0  0  0  0  0  0  0  0
   -7.5316   -1.4834   -1.3660 H   0  0  0  0  0  0  0  0  0  0  0  0
   -8.1485   -3.1256   -1.1252 H   0  0  0  0  0  0  0  0  0  0  0  0
   -4.8693   -0.5019   -1.3606 H   0  0  0  0  0  0  0  0  0  0  0  0
   -3.7769    1.4831   -0.3942 H   0  0  0  0  0  0  0  0  0  0  0  0
   -3.9032    2.9159    2.0253 H   0  0  0  0  0  0  0  0  0  0  0  0
   -3.2457    1.9516    3.3456 H   0  0  0  0  0  0  0  0  0  0  0  0
   -1.5307    0.2771    2.1238 H   0  0  0  0  0  0  0  0  0  0  0  0
    0.2547   -1.1046    1.9084 H   0  0  0  0  0  0  0  0  0  0  0  0
    2.6085   -1.4949    1.3287 H   0  0  0  0  0  0  0  0  0  0  0  0
    3.3861    3.7945    0.0602 H   0  0  0  0  0  0  0  0  0  0  0  0
    5.5886    2.2404   -0.2517 H   0  0  0  0  0  0  0  0  0  0  0  0
    6.2368   -0.0174    0.4013 H   0  0  0  0  0  0  0  0  0  0  0  0
    5.0763   -1.0212    1.2689 H   0  0  0  0  0  0  0  0  0  0  0  0
    4.0077   -1.6666   -0.9692 H   0  0  0  0  0  0  0  0  0  0  0  0
    5.6429   -2.2407   -0.7400 H   0  0  0  0  0  0  0  0  0  0  0  0
    7.5596   -1.2352   -1.9791 H   0  0  0  0  0  0  0  0  0  0  0  0
    8.2573   -0.1274   -4.0634 H   0  0  0  0  0  0  0  0  0  0  0  0
    4.2000    1.1832   -4.7289 H   0  0  0  0  0  0  0  0  0  0  0  0
    3.5001    0.0798   -2.6452 H   0  0  0  0  0  0  0  0  0  0  0  0
    0.6755    3.0911    0.9517 H   0  0  0  0  0  0  0  0  0  0  0  0
   -4.3755   -0.1254    3.5759 H   0  0  0  0  0  0  0  0  0  0  0  0
   -5.4742   -2.1027    2.6090 H   0  0  0  0  0  0  0  0  0  0  0  0
  1  2  1  0
  2  3  1  0
  3  4  2  0
  3  5  2  0
  3  6  1  0
  6  7  1  0
  7  8  2  0
  8  9  1  0
  9 10  1  0
 10 11  1  0
 11 12  2  0
 11 13  1  0
 13 14  1  0
 14 15  2  0
 15 16  1  0
 16 17  2  0
 17 18  1  0
 18 19  1  0
 19 20  2  0
 20 21  1  0
 21 22  1  0
 22 23  1  0
 23 24  1  0
 24 25  1  0
 25 26  2  0
 26 27  1  0
 27 28  1  0
 28 29  3  0
 27 30  2  0
 30 31  1  0
 18 32  2  0
  9 33  2  0
 33 34  1  0
 34  6  2  0
 32 14  1  0
 21 17  1  0
 31 24  2  0
  1 35  1  0
  1 36  1  0
  1 37  1  0
  2 38  1  0
  2 39  1  0
  7 40  1  0
  8 41  1  0
 10 42  1  0
 10 43  1  0
 13 44  1  0
 15 45  1  0
 16 46  1  0
 19 47  1  0
 20 48  1  0
 22 49  1  0
 22 50  1  0
 23 51  1  0
 23 52  1  0
 25 53  1  0
 26 54  1  0
 30 55  1  0
 31 56  1  0
 32 57  1  0
 33 58  1  0
 34 59  1  0
M  END
>  <QED>  (133) 
0.402

>  <MW>  (133) 
471.6

$$$$
CHEMBL3109326
     RDKit          3D

 68 70  0  0  0  0  0  0  0  0999 V2000
   -5.3032   -2.7944   -2.2106 C   0  0  0  0  0  0  0  0  0  0  0  0
   -3.8130   -2.5702   -2.4277 C   0  0  0  0  0  0  0  0  0  0  0  0
   -3.0977   -2.0350   -1.1783 C   0  0  0  0  0  0  0  0  0  0  0  0
   -3.6343   -0.7639   -0.6699 N   0  0  0  0  0  0  0  0  0  0  0  0
   -3.1599   -0.4726    0.6921 C   0  0  0  0  0  0  0  0  0  0  0  0
   -3.7586   -1.3828    1.7469 C   0  0  0  0  0  0  0  0  0  0  0  0
   -2.9338   -2.0571    2.6571 C   0  0  0  0  0  0  0  0  0  0  0  0
   -3.4864   -2.8800    3.6423 C   0  0  0  0  0  0  0  0  0  0  0  0
   -4.8726   -3.0485    3.7324 C   0  0  0  0  0  0  0  0  0  0  0  0
   -5.4675   -3.9072    4.8082 C   0  0  0  0  0  0  0  0  0  0  0  0
   -5.6997   -2.3603    2.8382 C   0  0  0  0  0  0  0  0  0  0  0  0
   -5.1480   -1.5369    1.8543 C   0  0  0  0  0  0  0  0  0  0  0  0
   -3.4600    0.3833   -1.5766 C   0  0  0  0  0  0  0  0  0  0  0  0
   -2.0406    0.8517   -1.8301 C   0  0  0  0  0  0  0  0  0  0  0  0
   -1.4522    1.8310   -1.0199 C   0  0  0  0  0  0  0  0  0  0  0  0
   -0.1420    2.2605   -1.2563 C   0  0  0  0  0  0  0  0  0  0  0  0
    0.6084    1.7248   -2.3091 C   0  0  0  0  0  0  0  0  0  0  0  0
    1.9200    2.2121   -2.4772 N   0  0  0  0  0  0  0  0  0  0  0  0
    2.8620    1.8053   -3.4088 C   0  0  0  0  0  0  0  0  0  0  0  0
    2.7198    0.9356   -4.2630 O   0  0  0  0  0  0  0  0  0  0  0  0
    4.1702    2.5764   -3.2962 C   0  0  0  0  0  0  0  0  0  0  0  0
    4.9159    2.2901   -2.0131 C   0  0  0  0  0  0  0  0  0  0  0  0
    5.1683    3.3150   -1.0890 C   0  0  0  0  0  0  0  0  0  0  0  0
    5.8529    3.0442    0.0971 C   0  0  0  0  0  0  0  0  0  0  0  0
    6.2841    1.7424    0.3608 C   0  0  0  0  0  0  0  0  0  0  0  0
    7.1593    1.3834    1.8657 S   0  0  0  0  0  0  0  0  0  0  0  0
    8.2461    0.4891    1.5135 O   0  0  0  0  0  0  0  0  0  0  0  0
    7.4292    2.6437    2.5328 O   0  0  0  0  0  0  0  0  0  0  0  0
    5.9930    0.4690    2.8537 C   0  0  0  0  0  0  0  0  0  0  0  0
    4.7435    1.2551    3.1944 C   0  0  0  0  0  0  0  0  0  0  0  0
    6.0644    0.7161   -0.5601 C   0  0  0  0  0  0  0  0  0  0  0  0
    5.3773    0.9920   -1.7424 C   0  0  0  0  0  0  0  0  0  0  0  0
    0.0231    0.7579   -3.1247 C   0  0  0  0  0  0  0  0  0  0  0  0
   -1.2886    0.3276   -2.8888 C   0  0  0  0  0  0  0  0  0  0  0  0
   -5.7487   -3.2475   -3.1020 H   0  0  0  0  0  0  0  0  0  0  0  0
   -5.4798   -3.4667   -1.3649 H   0  0  0  0  0  0  0  0  0  0  0  0
   -5.8261   -1.8526   -2.0181 H   0  0  0  0  0  0  0  0  0  0  0  0
   -3.3537   -3.5278   -2.7022 H   0  0  0  0  0  0  0  0  0  0  0  0
   -3.6649   -1.9044   -3.2839 H   0  0  0  0  0  0  0  0  0  0  0  0
   -2.0220   -1.9600   -1.3760 H   0  0  0  0  0  0  0  0  0  0  0  0
   -3.2010   -2.8149   -0.4133 H   0  0  0  0  0  0  0  0  0  0  0  0
   -2.0639   -0.5142    0.7362 H   0  0  0  0  0  0  0  0  0  0  0  0
   -3.4491    0.5454    0.9856 H   0  0  0  0  0  0  0  0  0  0  0  0
   -1.8533   -1.9484    2.6047 H   0  0  0  0  0  0  0  0  0  0  0  0
   -2.8259   -3.3911    4.3388 H   0  0  0  0  0  0  0  0  0  0  0  0
   -4.7809   -4.7117    5.0921 H   0  0  0  0  0  0  0  0  0  0  0  0
   -6.3940   -4.3782    4.4629 H   0  0  0  0  0  0  0  0  0  0  0  0
   -5.6860   -3.3010    5.6928 H   0  0  0  0  0  0  0  0  0  0  0  0
   -6.7807   -2.4623    2.8987 H   0  0  0  0  0  0  0  0  0  0  0  0
   -5.8057   -1.0179    1.1600 H   0  0  0  0  0  0  0  0  0  0  0  0
   -3.9443    0.1807   -2.5398 H   0  0  0  0  0  0  0  0  0  0  0  0
   -4.0379    1.2306   -1.1812 H   0  0  0  0  0  0  0  0  0  0  0  0
   -2.0127    2.2716   -0.1982 H   0  0  0  0  0  0  0  0  0  0  0  0
    0.2776    3.0213   -0.6034 H   0  0  0  0  0  0  0  0  0  0  0  0
    2.2224    2.9076   -1.8067 H   0  0  0  0  0  0  0  0  0  0  0  0
    4.8099    2.3166   -4.1484 H   0  0  0  0  0  0  0  0  0  0  0  0
    3.9464    3.6460   -3.3922 H   0  0  0  0  0  0  0  0  0  0  0  0
    4.8459    4.3352   -1.2890 H   0  0  0  0  0  0  0  0  0  0  0  0
    6.0516    3.8512    0.7998 H   0  0  0  0  0  0  0  0  0  0  0  0
    6.5200    0.1873    3.7713 H   0  0  0  0  0  0  0  0  0  0  0  0
    5.7425   -0.4487    2.3128 H   0  0  0  0  0  0  0  0  0  0  0  0
    4.0914    0.6635    3.8445 H   0  0  0  0  0  0  0  0  0  0  0  0
    4.9886    2.1854    3.7161 H   0  0  0  0  0  0  0  0  0  0  0  0
    4.1747    1.5130    2.2964 H   0  0  0  0  0  0  0  0  0  0  0  0
    6.4320   -0.2910   -0.3745 H   0  0  0  0  0  0  0  0  0  0  0  0
    5.2085    0.1884   -2.4594 H   0  0  0  0  0  0  0  0  0  0  0  0
    0.5562    0.3156   -3.9604 H   0  0  0  0  0  0  0  0  0  0  0  0
   -1.7165   -0.4251   -3.5472 H   0  0  0  0  0  0  0  0  0  0  0  0
  1  2  1  0
  2  3  1  0
  3  4  1  0
  4  5  1  0
  5  6  1  0
  6  7  1  0
  7  8  2  0
  8  9  1  0
  9 10  1  0
  9 11  2  0
 11 12  1  0
  4 13  1  0
 13 14  1  0
 14 15  1  0
 15 16  2  0
 16 17  1  0
 17 18  1  0
 18 19  1  0
 19 20  2  0
 19 21  1  0
 21 22  1  0
 22 23  1  0
 23 24  2  0
 24 25  1  0
 25 26  1  0
 26 27  2  0
 26 28  2  0
 26 29  1  0
 29 30  1  0
 25 31  2  0
 31 32  1  0
 17 33  2  0
 33 34  1  0
 12  6  2  0
 34 14  2  0
 32 22  2  0
  1 35  1  0
  1 36  1  0
  1 37  1  0
  2 38  1  0
  2 39  1  0
  3 40  1  0
  3 41  1  0
  5 42  1  0
  5 43  1  0
  7 44  1  0
  8 45  1  0
 10 46  1  0
 10 47  1  0
 10 48  1  0
 11 49  1  0
 12 50  1  0
 13 51  1  0
 13 52  1  0
 15 53  1  0
 16 54  1  0
 18 55  1  0
 21 56  1  0
 21 57  1  0
 23 58  1  0
 24 59  1  0
 29 60  1  0
 29 61  1  0
 30 62  1  0
 30 63  1  0
 30 64  1  0
 31 65  1  0
 32 66  1  0
 33 67  1  0
 34 68  1  0
M  END
>  <QED>  (134) 
0.402

>  <MW>  (134) 
478.7

$$$$
CHEMBL3596270
     RDKit          3D

 47 50  0  0  0  0  0  0  0  0999 V2000
    7.6897    1.2813    0.7393 O   0  0  0  0  0  0  0  0  0  0  0  0
    7.0486    0.7814   -0.1659 C   0  0  0  0  0  0  0  0  0  0  0  0
    7.6512    0.2995   -1.2667 O   0  0  0  0  0  0  0  0  0  0  0  0
    5.5756    0.6233   -0.2036 C   0  0  0  0  0  0  0  0  0  0  0  0
    4.8273    1.0988    0.8804 C   0  0  0  0  0  0  0  0  0  0  0  0
    3.4347    0.9690    0.8833 C   0  0  0  0  0  0  0  0  0  0  0  0
    2.7754    0.3526   -0.1892 C   0  0  0  0  0  0  0  0  0  0  0  0
    1.3328    0.2472   -0.1567 C   0  0  0  0  0  0  0  0  0  0  0  0
    0.5355    1.3206    0.1477 N   0  0  0  0  0  0  0  0  0  0  0  0
   -0.7153    0.8911    0.1280 C   0  0  0  0  0  0  0  0  0  0  0  0
   -1.8210    1.8006    0.3887 C   0  0  0  0  0  0  0  0  0  0  0  0
   -1.8645    2.9744    0.0219 O   0  0  0  0  0  0  0  0  0  0  0  0
   -3.0050    1.3461    1.1505 C   0  0  0  0  0  0  0  0  0  0  0  0
   -2.8774    0.8986    2.4755 C   0  0  0  0  0  0  0  0  0  0  0  0
   -1.3653    0.8175    3.3059 Cl  0  0  0  0  0  0  0  0  0  0  0  0
   -4.0130    0.5145    3.1952 C   0  0  0  0  0  0  0  0  0  0  0  0
   -5.2756    0.5905    2.6121 C   0  0  0  0  0  0  0  0  0  0  0  0
   -5.4105    1.0520    1.3041 C   0  0  0  0  0  0  0  0  0  0  0  0
   -4.2826    1.4331    0.5534 C   0  0  0  0  0  0  0  0  0  0  0  0
   -4.4655    1.9146   -0.8677 C   0  0  0  0  0  0  0  0  0  0  0  0
   -4.4438    3.2631   -0.9968 F   0  0  0  0  0  0  0  0  0  0  0  0
   -3.5326    1.4034   -1.7170 F   0  0  0  0  0  0  0  0  0  0  0  0
   -5.6637    1.5165   -1.3901 F   0  0  0  0  0  0  0  0  0  0  0  0
   -0.7358   -0.4528   -0.1814 N   0  0  0  0  0  0  0  0  0  0  0  0
    0.5664   -0.8842   -0.3424 C   0  0  0  0  0  0  0  0  0  0  0  0
    0.8970   -2.3120   -0.6175 C   0  0  0  0  0  0  0  0  0  0  0  0
   -0.2719   -3.0403   -1.2801 C   0  0  0  0  0  0  0  0  0  0  0  0
   -1.5638   -2.7790   -0.5118 C   0  0  0  0  0  0  0  0  0  0  0  0
   -1.8886   -1.2853   -0.4725 C   0  0  0  0  0  0  0  0  0  0  0  0
    3.5343   -0.0995   -1.2723 C   0  0  0  0  0  0  0  0  0  0  0  0
    2.9440   -0.6503   -2.3444 F   0  0  0  0  0  0  0  0  0  0  0  0
    4.9229    0.0253   -1.2855 C   0  0  0  0  0  0  0  0  0  0  0  0
    8.6029    0.4749   -1.1098 H   0  0  0  0  0  0  0  0  0  0  0  0
    5.3215    1.5790    1.7234 H   0  0  0  0  0  0  0  0  0  0  0  0
    2.8596    1.3562    1.7234 H   0  0  0  0  0  0  0  0  0  0  0  0
   -3.9219    0.1698    4.2238 H   0  0  0  0  0  0  0  0  0  0  0  0
   -6.1566    0.3020    3.1825 H   0  0  0  0  0  0  0  0  0  0  0  0
   -6.4083    1.1161    0.8675 H   0  0  0  0  0  0  0  0  0  0  0  0
    1.1409   -2.8013    0.3337 H   0  0  0  0  0  0  0  0  0  0  0  0
    1.7784   -2.4042   -1.2574 H   0  0  0  0  0  0  0  0  0  0  0  0
   -0.0654   -4.1158   -1.3150 H   0  0  0  0  0  0  0  0  0  0  0  0
   -0.3868   -2.6984   -2.3165 H   0  0  0  0  0  0  0  0  0  0  0  0
   -2.3957   -3.3255   -0.9694 H   0  0  0  0  0  0  0  0  0  0  0  0
   -1.4567   -3.1573    0.5129 H   0  0  0  0  0  0  0  0  0  0  0  0
   -2.2744   -0.9525   -1.4426 H   0  0  0  0  0  0  0  0  0  0  0  0
   -2.6497   -1.1155    0.2899 H   0  0  0  0  0  0  0  0  0  0  0  0
    5.4727   -0.3391   -2.1478 H   0  0  0  0  0  0  0  0  0  0  0  0
  1  2  2  0
  2  3  1  0
  2  4  1  0
  4  5  1  0
  5  6  2  0
  6  7  1  0
  7  8  1  0
  8  9  1  0
  9 10  2  0
 10 11  1  0
 11 12  2  0
 11 13  1  0
 13 14  2  0
 14 15  1  0
 14 16  1  0
 16 17  2  0
 17 18  1  0
 18 19  2  0
 19 20  1  0
 20 21  1  0
 20 22  1  0
 20 23  1  0
 10 24  1  0
 24 25  1  0
 25 26  1  0
 26 27  1  0
 27 28  1  0
 28 29  1  0
  7 30  2  0
 30 31  1  0
 30 32  1  0
 32  4  2  0
 25  8  2  0
 19 13  1  0
 29 24  1  0
  3 33  1  0
  5 34  1  0
  6 35  1  0
 16 36  1  0
 17 37  1  0
 18 38  1  0
 26 39  1  0
 26 40  1  0
 27 41  1  0
 27 42  1  0
 28 43  1  0
 28 44  1  0
 29 45  1  0
 29 46  1  0
 32 47  1  0
M  END
>  <QED>  (135) 
0.4

>  <MW>  (135) 
466.8

$$$$
CHEMBL3109229
     RDKit          3D

 58 61  0  0  0  0  0  0  0  0999 V2000
    8.9026    0.6318    1.4205 C   0  0  0  0  0  0  0  0  0  0  0  0
    7.9450    0.8232    2.5785 C   0  0  0  0  0  0  0  0  0  0  0  0
    6.6026   -0.3470    2.5921 S   0  0  0  0  0  0  0  0  0  0  0  0
    7.1594   -1.6841    2.5034 O   0  0  0  0  0  0  0  0  0  0  0  0
    5.7117    0.0066    3.6815 O   0  0  0  0  0  0  0  0  0  0  0  0
    5.7161   -0.0286    1.0845 C   0  0  0  0  0  0  0  0  0  0  0  0
    4.8793    1.0866    1.0080 C   0  0  0  0  0  0  0  0  0  0  0  0
    4.1753    1.3365   -0.1704 C   0  0  0  0  0  0  0  0  0  0  0  0
    4.2878    0.4658   -1.2659 C   0  0  0  0  0  0  0  0  0  0  0  0
    3.5172    0.7350   -2.5397 C   0  0  0  0  0  0  0  0  0  0  0  0
    2.0086    0.8390   -2.3526 C   0  0  0  0  0  0  0  0  0  0  0  0
    1.3962    1.8038   -2.8023 O   0  0  0  0  0  0  0  0  0  0  0  0
    1.4615   -0.2508   -1.6963 N   0  0  0  0  0  0  0  0  0  0  0  0
    0.1033   -0.4896   -1.3976 C   0  0  0  0  0  0  0  0  0  0  0  0
   -0.9396    0.3404   -1.8037 C   0  0  0  0  0  0  0  0  0  0  0  0
   -2.2734    0.0528   -1.4805 C   0  0  0  0  0  0  0  0  0  0  0  0
   -2.5404   -1.1017   -0.7320 C   0  0  0  0  0  0  0  0  0  0  0  0
   -1.5188   -1.9548   -0.3108 C   0  0  0  0  0  0  0  0  0  0  0  0
   -2.1250   -3.0146    0.4170 C   0  0  0  0  0  0  0  0  0  0  0  0
   -3.4828   -2.7930    0.4271 C   0  0  0  0  0  0  0  0  0  0  0  0
   -3.7250   -1.6345   -0.2655 N   0  0  0  0  0  0  0  0  0  0  0  0
   -5.0481   -1.0659   -0.4710 C   0  0  0  0  0  0  0  0  0  0  0  0
   -5.3802   -0.0063    0.5776 C   0  0  0  0  0  0  0  0  0  0  0  0
   -6.7499    0.5851    0.3506 C   0  0  0  0  0  0  0  0  0  0  0  0
   -6.9082    1.7091   -0.4747 C   0  0  0  0  0  0  0  0  0  0  0  0
   -8.1775    2.2428   -0.7010 C   0  0  0  0  0  0  0  0  0  0  0  0
   -9.2859    1.6519   -0.1068 C   0  0  0  0  0  0  0  0  0  0  0  0
  -10.5038    2.1646   -0.3257 F   0  0  0  0  0  0  0  0  0  0  0  0
   -9.1498    0.5360    0.7099 C   0  0  0  0  0  0  0  0  0  0  0  0
   -7.8819   -0.0001    0.9383 C   0  0  0  0  0  0  0  0  0  0  0  0
   -0.1855   -1.6430   -0.6501 C   0  0  0  0  0  0  0  0  0  0  0  0
    5.1278   -0.6541   -1.1692 C   0  0  0  0  0  0  0  0  0  0  0  0
    5.8362   -0.9076    0.0063 C   0  0  0  0  0  0  0  0  0  0  0  0
    8.4076    0.7966    0.4590 H   0  0  0  0  0  0  0  0  0  0  0  0
    9.3223   -0.3790    1.4140 H   0  0  0  0  0  0  0  0  0  0  0  0
    9.7316    1.3424    1.4957 H   0  0  0  0  0  0  0  0  0  0  0  0
    7.5126    1.8283    2.5670 H   0  0  0  0  0  0  0  0  0  0  0  0
    8.4755    0.6946    3.5277 H   0  0  0  0  0  0  0  0  0  0  0  0
    4.7609    1.7565    1.8573 H   0  0  0  0  0  0  0  0  0  0  0  0
    3.5267    2.2107   -0.2254 H   0  0  0  0  0  0  0  0  0  0  0  0
    3.8830    1.6745   -2.9718 H   0  0  0  0  0  0  0  0  0  0  0  0
    3.7023   -0.0501   -3.2829 H   0  0  0  0  0  0  0  0  0  0  0  0
    2.1152   -0.9351   -1.3341 H   0  0  0  0  0  0  0  0  0  0  0  0
   -0.7544    1.2370   -2.3875 H   0  0  0  0  0  0  0  0  0  0  0  0
   -3.0660    0.7170   -1.8096 H   0  0  0  0  0  0  0  0  0  0  0  0
   -1.6198   -3.8501    0.8834 H   0  0  0  0  0  0  0  0  0  0  0  0
   -4.2882   -3.3634    0.8712 H   0  0  0  0  0  0  0  0  0  0  0  0
   -5.7700   -1.8913   -0.4389 H   0  0  0  0  0  0  0  0  0  0  0  0
   -5.0814   -0.6556   -1.4870 H   0  0  0  0  0  0  0  0  0  0  0  0
   -5.3306   -0.4383    1.5858 H   0  0  0  0  0  0  0  0  0  0  0  0
   -4.6315    0.7963    0.5675 H   0  0  0  0  0  0  0  0  0  0  0  0
   -6.0447    2.1772   -0.9428 H   0  0  0  0  0  0  0  0  0  0  0  0
   -8.3088    3.1138   -1.3350 H   0  0  0  0  0  0  0  0  0  0  0  0
  -10.0305    0.0921    1.1629 H   0  0  0  0  0  0  0  0  0  0  0  0
   -7.7827   -0.8738    1.5791 H   0  0  0  0  0  0  0  0  0  0  0  0
    0.6053   -2.3084   -0.3182 H   0  0  0  0  0  0  0  0  0  0  0  0
    5.2362   -1.3403   -2.0076 H   0  0  0  0  0  0  0  0  0  0  0  0
    6.4744   -1.7868    0.0704 H   0  0  0  0  0  0  0  0  0  0  0  0
  1  2  1  0
  2  3  1  0
  3  4  2  0
  3  5  2  0
  3  6  1  0
  6  7  1  0
  7  8  2  0
  8  9  1  0
  9 10  1  0
 10 11  1  0
 11 12  2  0
 11 13  1  0
 13 14  1  0
 14 15  2  0
 15 16  1  0
 16 17  2  0
 17 18  1  0
 18 19  1  0
 19 20  2  0
 20 21  1  0
 21 22  1  0
 22 23  1  0
 23 24  1  0
 24 25  1  0
 25 26  2  0
 26 27  1  0
 27 28  1  0
 27 29  2  0
 29 30  1  0
 18 31  2  0
  9 32  2  0
 32 33  1  0
 33  6  2  0
 31 14  1  0
 21 17  1  0
 30 24  2  0
  1 34  1  0
  1 35  1  0
  1 36  1  0
  2 37  1  0
  2 38  1  0
  7 39  1  0
  8 40  1  0
 10 41  1  0
 10 42  1  0
 13 43  1  0
 15 44  1  0
 16 45  1  0
 19 46  1  0
 20 47  1  0
 22 48  1  0
 22 49  1  0
 23 50  1  0
 23 51  1  0
 25 52  1  0
 26 53  1  0
 29 54  1  0
 30 55  1  0
 31 56  1  0
 32 57  1  0
 33 58  1  0
M  END
>  <QED>  (136) 
0.399

>  <MW>  (136) 
464.6

$$$$
CHEMBL3598041
     RDKit          3D

 55 57  0  0  0  0  0  0  0  0999 V2000
    2.6147   -1.9911    2.3571 H   0  0  0  0  0  0  0  0  0  0  0  0
    3.0846   -1.8754    1.3751 C   0  0  0  0  0  0  0  0  0  0  0  0
    4.1380   -1.6384    1.5441 H   0  0  0  0  0  0  0  0  0  0  0  0
    3.0240   -2.8122    0.8129 H   0  0  0  0  0  0  0  0  0  0  0  0
    2.4290   -0.8175    0.6114 N   0  0  0  0  0  0  0  0  0  0  0  0
    3.0450   -0.1918   -0.4849 C   0  0  0  0  0  0  0  0  0  0  0  0
    2.4790    0.4539   -1.3647 O   0  0  0  0  0  0  0  0  0  0  0  0
    4.4939   -0.3463   -0.6451 C   0  0  0  0  0  0  0  0  0  0  0  0
    5.3284    0.5532    0.0150 C   0  0  0  0  0  0  0  0  0  0  0  0
    4.8210    1.4978    0.8198 F   0  0  0  0  0  0  0  0  0  0  0  0
    6.7110    0.4788   -0.1352 C   0  0  0  0  0  0  0  0  0  0  0  0
    7.2652   -0.4987   -0.9608 C   0  0  0  0  0  0  0  0  0  0  0  0
    6.4317   -1.3981   -1.6317 C   0  0  0  0  0  0  0  0  0  0  0  0
    5.0426   -1.3218   -1.4792 C   0  0  0  0  0  0  0  0  0  0  0  0
    4.0698   -2.4762   -2.3154 Cl  0  0  0  0  0  0  0  0  0  0  0  0
    1.0258   -0.6070    0.8348 C   0  0  0  0  0  0  0  0  0  0  0  0
    0.1901   -1.7124    1.0650 C   0  0  0  0  0  0  0  0  0  0  0  0
   -1.1833   -1.5437    1.2440 C   0  0  0  0  0  0  0  0  0  0  0  0
   -1.7378   -0.2656    1.2042 C   0  0  0  0  0  0  0  0  0  0  0  0
   -3.1576   -0.0858    1.3973 C   0  0  0  0  0  0  0  0  0  0  0  0
   -3.8471    0.1960    2.5933 C   0  0  0  0  0  0  0  0  0  0  0  0
   -5.1613    0.3022    2.4088 N   0  0  0  0  0  0  0  0  0  0  0  0
   -5.3189    0.0851    1.0894 N   0  0  0  0  0  0  0  0  0  0  0  0
   -6.6567    0.1113    0.5421 C   0  0  0  0  0  0  0  0  0  0  0  0
   -4.1362   -0.1437    0.4139 C   0  0  0  0  0  0  0  0  0  0  0  0
   -4.0936   -0.3999   -1.0737 C   0  0  0  0  0  0  0  0  0  0  0  0
   -3.8801   -1.8835   -1.3738 C   0  0  0  0  0  0  0  0  0  0  0  0
   -3.0582    0.4597   -1.7978 C   0  0  0  0  0  0  0  0  0  0  0  0
   -0.9121    0.8513    1.0241 C   0  0  0  0  0  0  0  0  0  0  0  0
    0.4670    0.6943    0.8407 C   0  0  0  0  0  0  0  0  0  0  0  0
    1.3523    1.7411    0.7767 O   0  0  0  0  0  0  0  0  0  0  0  0
    0.8795    3.0509    0.4565 C   0  0  0  0  0  0  0  0  0  0  0  0
    0.5587    3.2876   -1.0148 C   0  0  0  0  0  0  0  0  0  0  0  0
   -0.3857    2.4506   -1.4917 F   0  0  0  0  0  0  0  0  0  0  0  0
    1.6492    3.2114   -1.8040 F   0  0  0  0  0  0  0  0  0  0  0  0
    0.0637    4.5477   -1.1605 F   0  0  0  0  0  0  0  0  0  0  0  0
    7.3456    1.1880    0.3885 H   0  0  0  0  0  0  0  0  0  0  0  0
    8.3442   -0.5582   -1.0867 H   0  0  0  0  0  0  0  0  0  0  0  0
    6.8720   -2.1553   -2.2774 H   0  0  0  0  0  0  0  0  0  0  0  0
    0.5852   -2.7240    1.0584 H   0  0  0  0  0  0  0  0  0  0  0  0
   -1.8167   -2.4142    1.3984 H   0  0  0  0  0  0  0  0  0  0  0  0
   -3.4432    0.3262    3.5889 H   0  0  0  0  0  0  0  0  0  0  0  0
   -7.3827    0.2055    1.3543 H   0  0  0  0  0  0  0  0  0  0  0  0
   -6.7367    0.9710   -0.1274 H   0  0  0  0  0  0  0  0  0  0  0  0
   -6.8314   -0.8233    0.0038 H   0  0  0  0  0  0  0  0  0  0  0  0
   -5.0631   -0.1241   -1.5063 H   0  0  0  0  0  0  0  0  0  0  0  0
   -2.8970   -2.2303   -1.0411 H   0  0  0  0  0  0  0  0  0  0  0  0
   -4.6372   -2.4989   -0.8751 H   0  0  0  0  0  0  0  0  0  0  0  0
   -3.9511   -2.0726   -2.4504 H   0  0  0  0  0  0  0  0  0  0  0  0
   -3.1967    0.3872   -2.8824 H   0  0  0  0  0  0  0  0  0  0  0  0
   -2.0341    0.1389   -1.5858 H   0  0  0  0  0  0  0  0  0  0  0  0
   -3.1521    1.5150   -1.5192 H   0  0  0  0  0  0  0  0  0  0  0  0
   -1.3802    1.8291    1.0384 H   0  0  0  0  0  0  0  0  0  0  0  0
    0.0448    3.3435    1.1017 H   0  0  0  0  0  0  0  0  0  0  0  0
    1.6945    3.7331    0.7262 H   0  0  0  0  0  0  0  0  0  0  0  0
  1  2  1  0
  2  3  1  0
  2  4  1  0
  2  5  1  0
  5  6  1  0
  6  7  2  0
  6  8  1  0
  8  9  2  0
  9 10  1  0
  9 11  1  0
 11 12  2  0
 12 13  1  0
 13 14  2  0
 14 15  1  0
  5 16  1  0
 16 17  1  0
 17 18  2  0
 18 19  1  0
 19 20  1  0
 20 21  1  0
 21 22  2  0
 22 23  1  0
 23 24  1  0
 23 25  1  0
 25 26  1  0
 26 27  1  0
 26 28  1  0
 19 29  2  0
 29 30  1  0
 30 31  1  0
 31 32  1  0
 32 33  1  0
 33 34  1  0
 33 35  1  0
 33 36  1  0
 14  8  1  0
 30 16  2  0
 25 20  2  0
 11 37  1  0
 12 38  1  0
 13 39  1  0
 17 40  1  0
 18 41  1  0
 21 42  1  0
 24 43  1  0
 24 44  1  0
 24 45  1  0
 26 46  1  0
 27 47  1  0
 27 48  1  0
 27 49  1  0
 28 50  1  0
 28 51  1  0
 28 52  1  0
 29 53  1  0
 32 54  1  0
 32 55  1  0
M  ISO  3   1   2   3   2   4   2
M  END
>  <QED>  (137) 
0.388

>  <MW>  (137) 
486.9

$$$$
CHEMBL3596630
     RDKit          3D

 56 58  0  0  0  0  0  0  0  0999 V2000
   -2.4247    3.0483   -2.9166 C   0  0  0  0  0  0  0  0  0  0  0  0
   -1.3497    3.8559   -2.2051 C   0  0  0  0  0  0  0  0  0  0  0  0
   -1.0710    3.3733   -0.7829 C   0  0  0  0  0  0  0  0  0  0  0  0
   -0.4527    1.9788   -0.7207 C   0  0  0  0  0  0  0  0  0  0  0  0
   -0.2096    1.6706    0.6632 O   0  0  0  0  0  0  0  0  0  0  0  0
    0.3148    0.4031    0.7684 C   0  0  0  0  0  0  0  0  0  0  0  0
    1.7127    0.3119    0.8034 C   0  0  0  0  0  0  0  0  0  0  0  0
    2.3477   -0.9351    0.8306 C   0  0  0  0  0  0  0  0  0  0  0  0
    3.8146   -1.0328    0.8367 C   0  0  0  0  0  0  0  0  0  0  0  0
    4.5241   -0.6918   -0.3318 C   0  0  0  0  0  0  0  0  0  0  0  0
    5.9228   -0.7749   -0.3882 C   0  0  0  0  0  0  0  0  0  0  0  0
    6.6010   -0.3926   -1.6546 C   0  0  0  0  0  0  0  0  0  0  0  0
    7.8404   -0.9199   -1.8900 N   0  0  0  0  0  0  0  0  0  0  0  0
    6.0634    0.3400   -2.4744 O   0  0  0  0  0  0  0  0  0  0  0  0
    6.6372   -1.1841    0.7412 C   0  0  0  0  0  0  0  0  0  0  0  0
    5.9523   -1.5218    1.9103 C   0  0  0  0  0  0  0  0  0  0  0  0
    4.5547   -1.4493    1.9595 C   0  0  0  0  0  0  0  0  0  0  0  0
    3.7939   -1.8621    3.4582 Cl  0  0  0  0  0  0  0  0  0  0  0  0
    1.5457   -2.0832    0.8219 C   0  0  0  0  0  0  0  0  0  0  0  0
    0.1472   -1.9886    0.8143 C   0  0  0  0  0  0  0  0  0  0  0  0
   -0.4993   -0.7452    0.8084 C   0  0  0  0  0  0  0  0  0  0  0  0
   -1.9353   -0.6752    0.8719 N   0  0  0  0  0  0  0  0  0  0  0  0
   -2.5210    0.4235    1.6428 C   0  0  0  0  0  0  0  0  0  0  0  0
   -2.7285   -1.6107    0.1895 C   0  0  0  0  0  0  0  0  0  0  0  0
   -2.3289   -2.5427   -0.5054 O   0  0  0  0  0  0  0  0  0  0  0  0
   -4.1869   -1.4544    0.2462 C   0  0  0  0  0  0  0  0  0  0  0  0
   -4.7892   -0.5230   -0.5978 C   0  0  0  0  0  0  0  0  0  0  0  0
   -4.0477    0.2555   -1.3994 F   0  0  0  0  0  0  0  0  0  0  0  0
   -6.1728   -0.3676   -0.6110 C   0  0  0  0  0  0  0  0  0  0  0  0
   -6.9644   -1.1580    0.2216 C   0  0  0  0  0  0  0  0  0  0  0  0
   -6.3660   -2.0990    1.0646 C   0  0  0  0  0  0  0  0  0  0  0  0
   -4.9750   -2.2530    1.0763 C   0  0  0  0  0  0  0  0  0  0  0  0
   -4.2944   -3.4116    2.1590 Cl  0  0  0  0  0  0  0  0  0  0  0  0
   -3.3496    3.0233   -2.3317 H   0  0  0  0  0  0  0  0  0  0  0  0
   -2.6506    3.4985   -3.8886 H   0  0  0  0  0  0  0  0  0  0  0  0
   -2.1011    2.0190   -3.0965 H   0  0  0  0  0  0  0  0  0  0  0  0
   -0.4262    3.8353   -2.7951 H   0  0  0  0  0  0  0  0  0  0  0  0
   -1.6739    4.9024   -2.1598 H   0  0  0  0  0  0  0  0  0  0  0  0
   -0.3921    4.0818   -0.2915 H   0  0  0  0  0  0  0  0  0  0  0  0
   -1.9940    3.3933   -0.1901 H   0  0  0  0  0  0  0  0  0  0  0  0
    0.4922    1.9677   -1.2783 H   0  0  0  0  0  0  0  0  0  0  0  0
   -1.1370    1.2423   -1.1566 H   0  0  0  0  0  0  0  0  0  0  0  0
    2.3018    1.2263    0.7924 H   0  0  0  0  0  0  0  0  0  0  0  0
    3.9766   -0.3640   -1.2164 H   0  0  0  0  0  0  0  0  0  0  0  0
    8.2190   -0.7487   -2.8136 H   0  0  0  0  0  0  0  0  0  0  0  0
    8.1801   -1.7336   -1.3982 H   0  0  0  0  0  0  0  0  0  0  0  0
    7.7229   -1.2175    0.7400 H   0  0  0  0  0  0  0  0  0  0  0  0
    6.5142   -1.8302    2.7893 H   0  0  0  0  0  0  0  0  0  0  0  0
    2.0012   -3.0717    0.8334 H   0  0  0  0  0  0  0  0  0  0  0  0
   -0.4232   -2.9139    0.8519 H   0  0  0  0  0  0  0  0  0  0  0  0
   -2.7960    1.2360    0.9652 H   0  0  0  0  0  0  0  0  0  0  0  0
   -1.8338    0.7775    2.4174 H   0  0  0  0  0  0  0  0  0  0  0  0
   -3.4240    0.0846    2.1587 H   0  0  0  0  0  0  0  0  0  0  0  0
   -6.6243    0.3653   -1.2737 H   0  0  0  0  0  0  0  0  0  0  0  0
   -8.0464   -1.0450    0.2133 H   0  0  0  0  0  0  0  0  0  0  0  0
   -6.9911   -2.7127    1.7101 H   0  0  0  0  0  0  0  0  0  0  0  0
  1  2  1  0
  2  3  1  0
  3  4  1  0
  4  5  1  0
  5  6  1  0
  6  7  1  0
  7  8  2  0
  8  9  1  0
  9 10  1  0
 10 11  2  0
 11 12  1  0
 12 13  1  0
 12 14  2  0
 11 15  1  0
 15 16  2  0
 16 17  1  0
 17 18  1  0
  8 19  1  0
 19 20  2  0
 20 21  1  0
 21 22  1  0
 22 23  1  0
 22 24  1  0
 24 25  2  0
 24 26  1  0
 26 27  2  0
 27 28  1  0
 27 29  1  0
 29 30  2  0
 30 31  1  0
 31 32  2  0
 32 33  1  0
 21  6  2  0
 32 26  1  0
 17  9  2  0
  1 34  1  0
  1 35  1  0
  1 36  1  0
  2 37  1  0
  2 38  1  0
  3 39  1  0
  3 40  1  0
  4 41  1  0
  4 42  1  0
  7 43  1  0
 10 44  1  0
 13 45  1  0
 13 46  1  0
 15 47  1  0
 16 48  1  0
 19 49  1  0
 20 50  1  0
 23 51  1  0
 23 52  1  0
 23 53  1  0
 29 54  1  0
 30 55  1  0
 31 56  1  0
M  END
>  <QED>  (138) 
0.375

>  <MW>  (138) 
489.4

$$$$
CHEMBL3598066
     RDKit          3D

 71 75  0  0  0  0  0  0  0  0999 V2000
   -3.3990   -1.4252   -2.2290 H   0  0  0  0  0  0  0  0  0  0  0  0
   -4.1752   -1.3169   -1.4653 C   0  0  0  0  0  0  0  0  0  0  0  0
   -4.8669   -2.1512   -1.6113 H   0  0  0  0  0  0  0  0  0  0  0  0
   -4.7344   -0.3871   -1.6007 H   0  0  0  0  0  0  0  0  0  0  0  0
   -3.6102   -1.3566   -0.1153 N   0  0  0  0  0  0  0  0  0  0  0  0
   -4.3776   -1.7067    1.0059 C   0  0  0  0  0  0  0  0  0  0  0  0
   -4.0106   -1.6861    2.1795 O   0  0  0  0  0  0  0  0  0  0  0  0
   -5.7729   -2.1077    0.7949 C   0  0  0  0  0  0  0  0  0  0  0  0
   -6.0479   -3.4631    0.6246 C   0  0  0  0  0  0  0  0  0  0  0  0
   -5.0559   -4.3646    0.5944 F   0  0  0  0  0  0  0  0  0  0  0  0
   -7.3574   -3.9068    0.4592 C   0  0  0  0  0  0  0  0  0  0  0  0
   -8.4053   -2.9873    0.4752 C   0  0  0  0  0  0  0  0  0  0  0  0
   -8.1363   -1.6279    0.6581 C   0  0  0  0  0  0  0  0  0  0  0  0
   -6.8191   -1.1843    0.8241 C   0  0  0  0  0  0  0  0  0  0  0  0
   -6.5557    0.5065    1.0445 Cl  0  0  0  0  0  0  0  0  0  0  0  0
   -2.2198   -0.9978    0.0322 C   0  0  0  0  0  0  0  0  0  0  0  0
   -1.4300   -1.7318    0.9366 C   0  0  0  0  0  0  0  0  0  0  0  0
   -0.0642   -1.4848    1.0792 C   0  0  0  0  0  0  0  0  0  0  0  0
    0.5427   -0.4835    0.3287 C   0  0  0  0  0  0  0  0  0  0  0  0
    1.9660   -0.2209    0.4700 C   0  0  0  0  0  0  0  0  0  0  0  0
    3.0225   -0.8774   -0.1330 C   0  0  0  0  0  0  0  0  0  0  0  0
    4.1961   -0.2376    0.3198 C   0  0  0  0  0  0  0  0  0  0  0  0
    5.4632   -0.6051   -0.0759 N   0  0  0  0  0  0  0  0  0  0  0  0
    6.6394   -0.0976    0.4242 C   0  0  0  0  0  0  0  0  0  0  0  0
    6.7902    0.6941    1.3446 O   0  0  0  0  0  0  0  0  0  0  0  0
    7.7198   -0.6411   -0.2560 N   0  0  0  0  0  0  0  0  0  0  0  0
    9.0587   -0.1595    0.0407 C   0  0  0  0  0  0  0  0  0  0  0  0
   10.1106   -1.0221   -0.6485 C   0  0  0  0  0  0  0  0  0  0  0  0
    9.8883   -1.0131   -2.0603 O   0  0  0  0  0  0  0  0  0  0  0  0
    3.8969    0.7629    1.1413 N   0  0  0  0  0  0  0  0  0  0  0  0
    2.5526    0.7472    1.2550 N   0  0  0  0  0  0  0  0  0  0  0  0
    1.9515    1.7312    2.1536 C   0  0  0  0  0  0  0  0  0  0  0  0
    1.2505    2.8602    1.4003 C   0  0  0  0  0  0  0  0  0  0  0  0
    1.0527    1.1176    3.2259 C   0  0  0  0  0  0  0  0  0  0  0  0
   -0.2236    0.2489   -0.5846 C   0  0  0  0  0  0  0  0  0  0  0  0
   -1.6069    0.0275   -0.7459 C   0  0  0  0  0  0  0  0  0  0  0  0
   -2.3859    0.8815   -1.5544 N   0  0  0  0  0  0  0  0  0  0  0  0
   -1.8124    1.4971   -2.7802 C   0  0  0  0  0  0  0  0  0  0  0  0
   -1.8095    2.9434   -2.4260 C   0  0  0  0  0  0  0  0  0  0  0  0
   -2.6212    4.1821   -2.4736 C   0  0  0  0  0  0  0  0  0  0  0  0
   -3.2264    3.0151   -1.7732 C   0  0  0  0  0  0  0  0  0  0  0  0
   -3.0045    1.9695   -0.7345 C   0  0  0  0  0  0  0  0  0  0  0  0
   -7.5511   -4.9671    0.3235 H   0  0  0  0  0  0  0  0  0  0  0  0
   -9.4312   -3.3277    0.3515 H   0  0  0  0  0  0  0  0  0  0  0  0
   -8.9608   -0.9179    0.6767 H   0  0  0  0  0  0  0  0  0  0  0  0
   -1.8640   -2.5372    1.5249 H   0  0  0  0  0  0  0  0  0  0  0  0
    0.5134   -2.0782    1.7841 H   0  0  0  0  0  0  0  0  0  0  0  0
    2.9433   -1.7103   -0.8165 H   0  0  0  0  0  0  0  0  0  0  0  0
    5.5328   -1.4035   -0.6822 H   0  0  0  0  0  0  0  0  0  0  0  0
    7.5643   -0.7902   -1.2440 H   0  0  0  0  0  0  0  0  0  0  0  0
    9.2114   -0.1577    1.1250 H   0  0  0  0  0  0  0  0  0  0  0  0
    9.1137    0.8732   -0.3219 H   0  0  0  0  0  0  0  0  0  0  0  0
   11.1131   -0.6313   -0.4497 H   0  0  0  0  0  0  0  0  0  0  0  0
   10.0529   -2.0588   -0.3016 H   0  0  0  0  0  0  0  0  0  0  0  0
   10.6105   -1.5298   -2.4587 H   0  0  0  0  0  0  0  0  0  0  0  0
    2.7976    2.1864    2.6882 H   0  0  0  0  0  0  0  0  0  0  0  0
    0.3199    2.5268    0.9341 H   0  0  0  0  0  0  0  0  0  0  0  0
    0.9967    3.6760    2.0858 H   0  0  0  0  0  0  0  0  0  0  0  0
    1.8935    3.2693    0.6135 H   0  0  0  0  0  0  0  0  0  0  0  0
    0.0897    0.7952    2.8208 H   0  0  0  0  0  0  0  0  0  0  0  0
    1.5323    0.2540    3.6989 H   0  0  0  0  0  0  0  0  0  0  0  0
    0.8398    1.8545    4.0082 H   0  0  0  0  0  0  0  0  0  0  0  0
    0.2724    1.0380   -1.1424 H   0  0  0  0  0  0  0  0  0  0  0  0
   -2.4765    1.2971   -3.6296 H   0  0  0  0  0  0  0  0  0  0  0  0
   -0.8187    1.1239   -3.0456 H   0  0  0  0  0  0  0  0  0  0  0  0
   -0.9117    3.1095   -1.8255 H   0  0  0  0  0  0  0  0  0  0  0  0
   -3.0391    4.4790   -3.4297 H   0  0  0  0  0  0  0  0  0  0  0  0
   -2.3054    5.0256   -1.8684 H   0  0  0  0  0  0  0  0  0  0  0  0
   -4.1175    2.6914   -2.3196 H   0  0  0  0  0  0  0  0  0  0  0  0
   -2.3452    2.3348    0.0641 H   0  0  0  0  0  0  0  0  0  0  0  0
   -3.9491    1.6340   -0.2972 H   0  0  0  0  0  0  0  0  0  0  0  0
  1  2  1  0
  2  3  1  0
  2  4  1  0
  2  5  1  0
  5  6  1  0
  6  7  2  0
  6  8  1  0
  8  9  2  0
  9 10  1  0
  9 11  1  0
 11 12  2  0
 12 13  1  0
 13 14  2  0
 14 15  1  0
  5 16  1  0
 16 17  1  0
 17 18  2  0
 18 19  1  0
 19 20  1  0
 20 21  2  0
 21 22  1  0
 22 23  1  0
 23 24  1  0
 24 25  2  0
 24 26  1  0
 26 27  1  0
 27 28  1  0
 28 29  1  0
 22 30  2  0
 30 31  1  0
 31 32  1  0
 32 33  1  0
 32 34  1  0
 19 35  2  0
 35 36  1  0
 36 37  1  0
 37 38  1  0
 38 39  1  0
 39 40  1  0
 40 41  1  0
 41 42  1  0
 14  8  1  0
 36 16  2  0
 42 37  1  0
 31 20  1  0
 41 39  1  0
 11 43  1  0
 12 44  1  0
 13 45  1  0
 17 46  1  0
 18 47  1  0
 21 48  1  0
 23 49  1  0
 26 50  1  0
 27 51  1  0
 27 52  1  0
 28 53  1  0
 28 54  1  0
 29 55  1  0
 32 56  1  0
 33 57  1  0
 33 58  1  0
 33 59  1  0
 34 60  1  0
 34 61  1  0
 34 62  1  0
 35 63  1  0
 38 64  1  0
 38 65  1  0
 39 66  1  0
 40 67  1  0
 40 68  1  0
 41 69  1  0
 42 70  1  0
 42 71  1  0
M  ISO  3   1   2   3   2   4   2
M  END
>  <QED>  (139) 
0.37

>  <MW>  (139) 
558.1

$$$$
CHEMBL5083123
     RDKit          3D

 65 67  0  0  0  0  0  0  0  0999 V2000
   -4.5217    2.2743   -2.9475 C   0  0  0  0  0  0  0  0  0  0  0  0
   -4.3623    0.7763   -2.7288 C   0  0  0  0  0  0  0  0  0  0  0  0
   -4.4024    0.4260   -1.2354 C   0  0  0  0  0  0  0  0  0  0  0  0
   -4.3571   -1.0226   -0.9837 N   0  0  0  0  0  0  0  0  0  0  0  0
   -4.7354   -1.3491    0.4015 C   0  0  0  0  0  0  0  0  0  0  0  0
   -6.2128   -1.1452    0.6839 C   0  0  0  0  0  0  0  0  0  0  0  0
   -6.6276   -0.3726    1.7791 C   0  0  0  0  0  0  0  0  0  0  0  0
   -7.9874   -0.1994    2.0491 C   0  0  0  0  0  0  0  0  0  0  0  0
   -8.9392   -0.8020    1.2291 C   0  0  0  0  0  0  0  0  0  0  0  0
  -10.6136   -0.5864    1.5629 Cl  0  0  0  0  0  0  0  0  0  0  0  0
   -8.5446   -1.5782    0.1423 C   0  0  0  0  0  0  0  0  0  0  0  0
   -7.1855   -1.7518   -0.1271 C   0  0  0  0  0  0  0  0  0  0  0  0
   -3.0959   -1.6778   -1.3752 C   0  0  0  0  0  0  0  0  0  0  0  0
   -1.8459   -1.2723   -0.6193 C   0  0  0  0  0  0  0  0  0  0  0  0
   -1.4585   -1.9534    0.5425 C   0  0  0  0  0  0  0  0  0  0  0  0
   -0.3058   -1.5828    1.2460 C   0  0  0  0  0  0  0  0  0  0  0  0
    0.4875   -0.5275    0.7989 C   0  0  0  0  0  0  0  0  0  0  0  0
    1.6600   -0.0889    1.4466 N   0  0  0  0  0  0  0  0  0  0  0  0
    2.2616   -0.6313    2.5700 C   0  0  0  0  0  0  0  0  0  0  0  0
    1.8589   -1.5936    3.2183 O   0  0  0  0  0  0  0  0  0  0  0  0
    3.5064    0.1253    3.0179 C   0  0  0  0  0  0  0  0  0  0  0  0
    4.5154    0.3816    1.9200 C   0  0  0  0  0  0  0  0  0  0  0  0
    5.0698   -0.6897    1.2016 C   0  0  0  0  0  0  0  0  0  0  0  0
    5.9908   -0.4562    0.1797 C   0  0  0  0  0  0  0  0  0  0  0  0
    6.3746    0.8542   -0.1117 C   0  0  0  0  0  0  0  0  0  0  0  0
    7.5352    1.1552   -1.4263 S   0  0  0  0  0  0  0  0  0  0  0  0
    7.4016    0.0641   -2.3726 O   0  0  0  0  0  0  0  0  0  0  0  0
    7.3582    2.5324   -1.8471 O   0  0  0  0  0  0  0  0  0  0  0  0
    9.1130    1.0112   -0.6076 C   0  0  0  0  0  0  0  0  0  0  0  0
   10.2616    1.2414   -1.5694 C   0  0  0  0  0  0  0  0  0  0  0  0
    5.8317    1.9318    0.5912 C   0  0  0  0  0  0  0  0  0  0  0  0
    4.9086    1.6925    1.6103 C   0  0  0  0  0  0  0  0  0  0  0  0
    0.1101    0.1508   -0.3656 C   0  0  0  0  0  0  0  0  0  0  0  0
   -1.0414   -0.2188   -1.0689 C   0  0  0  0  0  0  0  0  0  0  0  0
   -4.4909    2.5062   -4.0168 H   0  0  0  0  0  0  0  0  0  0  0  0
   -3.7165    2.8294   -2.4557 H   0  0  0  0  0  0  0  0  0  0  0  0
   -5.4780    2.6302   -2.5509 H   0  0  0  0  0  0  0  0  0  0  0  0
   -3.4176    0.4636   -3.1839 H   0  0  0  0  0  0  0  0  0  0  0  0
   -5.1678    0.2510   -3.2558 H   0  0  0  0  0  0  0  0  0  0  0  0
   -3.6047    0.9512   -0.6971 H   0  0  0  0  0  0  0  0  0  0  0  0
   -5.3434    0.8357   -0.8476 H   0  0  0  0  0  0  0  0  0  0  0  0
   -4.1321   -0.7719    1.1138 H   0  0  0  0  0  0  0  0  0  0  0  0
   -4.5416   -2.4099    0.6099 H   0  0  0  0  0  0  0  0  0  0  0  0
   -5.8940    0.1020    2.4272 H   0  0  0  0  0  0  0  0  0  0  0  0
   -8.2957    0.4043    2.8982 H   0  0  0  0  0  0  0  0  0  0  0  0
   -9.2849   -2.0487   -0.4985 H   0  0  0  0  0  0  0  0  0  0  0  0
   -6.8803   -2.3552   -0.9801 H   0  0  0  0  0  0  0  0  0  0  0  0
   -3.2217   -2.7654   -1.2776 H   0  0  0  0  0  0  0  0  0  0  0  0
   -2.9201   -1.5457   -2.4498 H   0  0  0  0  0  0  0  0  0  0  0  0
   -2.0500   -2.7875    0.9143 H   0  0  0  0  0  0  0  0  0  0  0  0
   -0.0585   -2.1446    2.1411 H   0  0  0  0  0  0  0  0  0  0  0  0
    2.1447    0.6813    1.0013 H   0  0  0  0  0  0  0  0  0  0  0  0
    4.0001   -0.4508    3.8101 H   0  0  0  0  0  0  0  0  0  0  0  0
    3.1721    1.0671    3.4696 H   0  0  0  0  0  0  0  0  0  0  0  0
    4.7771   -1.7152    1.4268 H   0  0  0  0  0  0  0  0  0  0  0  0
    6.3936   -1.2960   -0.3831 H   0  0  0  0  0  0  0  0  0  0  0  0
    9.1744    0.0073   -0.1771 H   0  0  0  0  0  0  0  0  0  0  0  0
    9.1382    1.7513    0.1977 H   0  0  0  0  0  0  0  0  0  0  0  0
   11.2190    1.1481   -1.0480 H   0  0  0  0  0  0  0  0  0  0  0  0
   10.2100    2.2407   -2.0132 H   0  0  0  0  0  0  0  0  0  0  0  0
   10.2443    0.5122   -2.3858 H   0  0  0  0  0  0  0  0  0  0  0  0
    6.1156    2.9548    0.3518 H   0  0  0  0  0  0  0  0  0  0  0  0
    4.4967    2.5389    2.1574 H   0  0  0  0  0  0  0  0  0  0  0  0
    0.7070    0.9745   -0.7490 H   0  0  0  0  0  0  0  0  0  0  0  0
   -1.3028    0.3239   -1.9741 H   0  0  0  0  0  0  0  0  0  0  0  0
  1  2  1  0
  2  3  1  0
  3  4  1  0
  4  5  1  0
  5  6  1  0
  6  7  1  0
  7  8  2  0
  8  9  1  0
  9 10  1  0
  9 11  2  0
 11 12  1  0
  4 13  1  0
 13 14  1  0
 14 15  1  0
 15 16  2  0
 16 17  1  0
 17 18  1  0
 18 19  1  0
 19 20  2  0
 19 21  1  0
 21 22  1  0
 22 23  1  0
 23 24  2  0
 24 25  1  0
 25 26  1  0
 26 27  2  0
 26 28  2  0
 26 29  1  0
 29 30  1  0
 25 31  2  0
 31 32  1  0
 17 33  2  0
 33 34  1  0
 12  6  2  0
 34 14  2  0
 32 22  2  0
  1 35  1  0
  1 36  1  0
  1 37  1  0
  2 38  1  0
  2 39  1  0
  3 40  1  0
  3 41  1  0
  5 42  1  0
  5 43  1  0
  7 44  1  0
  8 45  1  0
 11 46  1  0
 12 47  1  0
 13 48  1  0
 13 49  1  0
 15 50  1  0
 16 51  1  0
 18 52  1  0
 21 53  1  0
 21 54  1  0
 23 55  1  0
 24 56  1  0
 29 57  1  0
 29 58  1  0
 30 59  1  0
 30 60  1  0
 30 61  1  0
 31 62  1  0
 32 63  1  0
 33 64  1  0
 34 65  1  0
M  END
>  <QED>  (140) 
0.367

>  <MW>  (140) 
499.1

$$$$
CHEMBL3109230
     RDKit          3D

 58 61  0  0  0  0  0  0  0  0999 V2000
    8.3263    2.1684    3.1264 C   0  0  0  0  0  0  0  0  0  0  0  0
    7.5125    2.0542    1.8528 C   0  0  0  0  0  0  0  0  0  0  0  0
    5.7657    1.9577    2.1989 S   0  0  0  0  0  0  0  0  0  0  0  0
    5.4956    0.7065    2.8811 O   0  0  0  0  0  0  0  0  0  0  0  0
    5.3377    3.2227    2.7662 O   0  0  0  0  0  0  0  0  0  0  0  0
    5.0437    1.8375    0.5772 C   0  0  0  0  0  0  0  0  0  0  0  0
    4.8984    0.5835   -0.0191 C   0  0  0  0  0  0  0  0  0  0  0  0
    4.3195    0.4892   -1.2851 C   0  0  0  0  0  0  0  0  0  0  0  0
    3.8664    1.6402   -1.9491 C   0  0  0  0  0  0  0  0  0  0  0  0
    3.2258    1.5328   -3.3157 C   0  0  0  0  0  0  0  0  0  0  0  0
    2.0018    0.6262   -3.3723 C   0  0  0  0  0  0  0  0  0  0  0  0
    1.9037   -0.2200   -4.2567 O   0  0  0  0  0  0  0  0  0  0  0  0
    1.0633    0.9060   -2.3930 N   0  0  0  0  0  0  0  0  0  0  0  0
   -0.1852    0.2813   -2.1874 C   0  0  0  0  0  0  0  0  0  0  0  0
   -0.9213    0.6934   -1.0713 C   0  0  0  0  0  0  0  0  0  0  0  0
   -2.1731    0.1432   -0.7680 C   0  0  0  0  0  0  0  0  0  0  0  0
   -2.6801   -0.8432   -1.6244 C   0  0  0  0  0  0  0  0  0  0  0  0
   -1.9715   -1.2748   -2.7479 C   0  0  0  0  0  0  0  0  0  0  0  0
   -2.7605   -2.2686   -3.3894 C   0  0  0  0  0  0  0  0  0  0  0  0
   -3.9150   -2.4249   -2.6583 C   0  0  0  0  0  0  0  0  0  0  0  0
   -3.8569   -1.5644   -1.5924 N   0  0  0  0  0  0  0  0  0  0  0  0
   -4.8987   -1.4428   -0.5846 C   0  0  0  0  0  0  0  0  0  0  0  0
   -4.6159   -2.3209    0.6326 C   0  0  0  0  0  0  0  0  0  0  0  0
   -5.6946   -2.1795    1.6784 C   0  0  0  0  0  0  0  0  0  0  0  0
   -5.5789   -1.2169    2.6911 C   0  0  0  0  0  0  0  0  0  0  0  0
   -6.5873   -1.0721    3.6466 C   0  0  0  0  0  0  0  0  0  0  0  0
   -7.7163   -1.8863    3.5909 C   0  0  0  0  0  0  0  0  0  0  0  0
   -8.9589   -1.7064    4.7672 Cl  0  0  0  0  0  0  0  0  0  0  0  0
   -7.8461   -2.8439    2.5877 C   0  0  0  0  0  0  0  0  0  0  0  0
   -6.8381   -2.9895    1.6320 C   0  0  0  0  0  0  0  0  0  0  0  0
   -0.7107   -0.7040   -3.0297 C   0  0  0  0  0  0  0  0  0  0  0  0
    4.0159    2.8920   -1.3329 C   0  0  0  0  0  0  0  0  0  0  0  0
    4.5971    2.9926   -0.0680 C   0  0  0  0  0  0  0  0  0  0  0  0
    8.0513    3.0650    3.6910 H   0  0  0  0  0  0  0  0  0  0  0  0
    9.3935    2.2260    2.8922 H   0  0  0  0  0  0  0  0  0  0  0  0
    8.1650    1.3022    3.7761 H   0  0  0  0  0  0  0  0  0  0  0  0
    7.7935    1.1510    1.3031 H   0  0  0  0  0  0  0  0  0  0  0  0
    7.6774    2.9294    1.2173 H   0  0  0  0  0  0  0  0  0  0  0  0
    5.2229   -0.3209    0.4921 H   0  0  0  0  0  0  0  0  0  0  0  0
    4.2119   -0.4922   -1.7470 H   0  0  0  0  0  0  0  0  0  0  0  0
    2.9189    2.5197   -3.6826 H   0  0  0  0  0  0  0  0  0  0  0  0
    3.9771    1.1509   -4.0178 H   0  0  0  0  0  0  0  0  0  0  0  0
    1.3235    1.6013   -1.7039 H   0  0  0  0  0  0  0  0  0  0  0  0
   -0.5284    1.4575   -0.4040 H   0  0  0  0  0  0  0  0  0  0  0  0
   -2.7221    0.4781    0.1057 H   0  0  0  0  0  0  0  0  0  0  0  0
   -2.5049   -2.8092   -4.2914 H   0  0  0  0  0  0  0  0  0  0  0  0
   -4.7646   -3.0774   -2.8119 H   0  0  0  0  0  0  0  0  0  0  0  0
   -5.8488   -1.7198   -1.0581 H   0  0  0  0  0  0  0  0  0  0  0  0
   -4.9783   -0.3842   -0.3111 H   0  0  0  0  0  0  0  0  0  0  0  0
   -4.5332   -3.3740    0.3334 H   0  0  0  0  0  0  0  0  0  0  0  0
   -3.6440   -2.0665    1.0750 H   0  0  0  0  0  0  0  0  0  0  0  0
   -4.7015   -0.5756    2.7461 H   0  0  0  0  0  0  0  0  0  0  0  0
   -6.4857   -0.3254    4.4296 H   0  0  0  0  0  0  0  0  0  0  0  0
   -8.7267   -3.4793    2.5443 H   0  0  0  0  0  0  0  0  0  0  0  0
   -6.9508   -3.7415    0.8535 H   0  0  0  0  0  0  0  0  0  0  0  0
   -0.1804   -1.0517   -3.9084 H   0  0  0  0  0  0  0  0  0  0  0  0
    3.6772    3.7991   -1.8310 H   0  0  0  0  0  0  0  0  0  0  0  0
    4.6925    3.9686    0.4040 H   0  0  0  0  0  0  0  0  0  0  0  0
  1  2  1  0
  2  3  1  0
  3  4  2  0
  3  5  2  0
  3  6  1  0
  6  7  1  0
  7  8  2  0
  8  9  1  0
  9 10  1  0
 10 11  1  0
 11 12  2  0
 11 13  1  0
 13 14  1  0
 14 15  2  0
 15 16  1  0
 16 17  2  0
 17 18  1  0
 18 19  1  0
 19 20  2  0
 20 21  1  0
 21 22  1  0
 22 23  1  0
 23 24  1  0
 24 25  1  0
 25 26  2  0
 26 27  1  0
 27 28  1  0
 27 29  2  0
 29 30  1  0
 18 31  2  0
  9 32  2  0
 32 33  1  0
 33  6  2  0
 31 14  1  0
 21 17  1  0
 30 24  2  0
  1 34  1  0
  1 35  1  0
  1 36  1  0
  2 37  1  0
  2 38  1  0
  7 39  1  0
  8 40  1  0
 10 41  1  0
 10 42  1  0
 13 43  1  0
 15 44  1  0
 16 45  1  0
 19 46  1  0
 20 47  1  0
 22 48  1  0
 22 49  1  0
 23 50  1  0
 23 51  1  0
 25 52  1  0
 26 53  1  0
 29 54  1  0
 30 55  1  0
 31 56  1  0
 32 57  1  0
 33 58  1  0
M  END
>  <QED>  (141) 
0.361

>  <MW>  (141) 
481.0

$$$$
CHEMBL3109327
     RDKit          3D

 71 73  0  0  0  0  0  0  0  0999 V2000
   -5.7612   -1.8945    0.1908 C   0  0  0  0  0  0  0  0  0  0  0  0
   -4.2547   -2.1073    0.2407 C   0  0  0  0  0  0  0  0  0  0  0  0
   -3.4683   -0.7938    0.3610 C   0  0  0  0  0  0  0  0  0  0  0  0
   -3.6987    0.1509   -0.7427 N   0  0  0  0  0  0  0  0  0  0  0  0
   -3.1933    1.4982   -0.4305 C   0  0  0  0  0  0  0  0  0  0  0  0
   -3.9860    2.2052    0.6516 C   0  0  0  0  0  0  0  0  0  0  0  0
   -3.3355    2.7525    1.7661 C   0  0  0  0  0  0  0  0  0  0  0  0
   -4.0608    3.4208    2.7571 C   0  0  0  0  0  0  0  0  0  0  0  0
   -5.4510    3.5526    2.6534 C   0  0  0  0  0  0  0  0  0  0  0  0
   -6.2306    4.2800    3.7175 C   0  0  0  0  0  0  0  0  0  0  0  0
   -6.6283    5.6819    3.2793 C   0  0  0  0  0  0  0  0  0  0  0  0
   -6.1020    3.0133    1.5367 C   0  0  0  0  0  0  0  0  0  0  0  0
   -5.3761    2.3496    0.5447 C   0  0  0  0  0  0  0  0  0  0  0  0
   -3.2386   -0.3181   -2.0612 C   0  0  0  0  0  0  0  0  0  0  0  0
   -1.7416   -0.4523   -2.2580 C   0  0  0  0  0  0  0  0  0  0  0  0
   -1.0713   -1.6345   -1.9243 C   0  0  0  0  0  0  0  0  0  0  0  0
    0.3133   -1.7418   -2.0910 C   0  0  0  0  0  0  0  0  0  0  0  0
    1.0589   -0.6727   -2.6002 C   0  0  0  0  0  0  0  0  0  0  0  0
    2.4496   -0.8618   -2.7259 N   0  0  0  0  0  0  0  0  0  0  0  0
    3.3973    0.0643   -3.1332 C   0  0  0  0  0  0  0  0  0  0  0  0
    3.1863    1.2253   -3.4721 O   0  0  0  0  0  0  0  0  0  0  0  0
    4.8108   -0.5031   -3.1713 C   0  0  0  0  0  0  0  0  0  0  0  0
    5.2734   -1.0768   -1.8509 C   0  0  0  0  0  0  0  0  0  0  0  0
    5.3540   -0.2576   -0.7148 C   0  0  0  0  0  0  0  0  0  0  0  0
    5.7571   -0.7852    0.5125 C   0  0  0  0  0  0  0  0  0  0  0  0
    6.0964   -2.1359    0.6008 C   0  0  0  0  0  0  0  0  0  0  0  0
    6.5719   -2.8131    2.1750 S   0  0  0  0  0  0  0  0  0  0  0  0
    6.5240   -4.2592    2.0649 O   0  0  0  0  0  0  0  0  0  0  0  0
    5.7816   -2.1236    3.1786 O   0  0  0  0  0  0  0  0  0  0  0  0
    8.2688   -2.3186    2.3814 C   0  0  0  0  0  0  0  0  0  0  0  0
    9.1975   -2.8715    1.3203 C   0  0  0  0  0  0  0  0  0  0  0  0
    6.0186   -2.9667   -0.5190 C   0  0  0  0  0  0  0  0  0  0  0  0
    5.6145   -2.4339   -1.7443 C   0  0  0  0  0  0  0  0  0  0  0  0
    0.3936    0.5005   -2.9528 C   0  0  0  0  0  0  0  0  0  0  0  0
   -0.9924    0.6089   -2.7834 C   0  0  0  0  0  0  0  0  0  0  0  0
   -6.0536   -1.2797   -0.6665 H   0  0  0  0  0  0  0  0  0  0  0  0
   -6.2740   -2.8574    0.1005 H   0  0  0  0  0  0  0  0  0  0  0  0
   -6.1165   -1.4030    1.1035 H   0  0  0  0  0  0  0  0  0  0  0  0
   -4.0189   -2.7349    1.1094 H   0  0  0  0  0  0  0  0  0  0  0  0
   -3.9375   -2.6772   -0.6376 H   0  0  0  0  0  0  0  0  0  0  0  0
   -2.4013   -1.0166    0.4761 H   0  0  0  0  0  0  0  0  0  0  0  0
   -3.7772   -0.3392    1.3118 H   0  0  0  0  0  0  0  0  0  0  0  0
   -3.2622    2.1445   -1.3161 H   0  0  0  0  0  0  0  0  0  0  0  0
   -2.1323    1.4569   -0.1513 H   0  0  0  0  0  0  0  0  0  0  0  0
   -2.2574    2.6611    1.8727 H   0  0  0  0  0  0  0  0  0  0  0  0
   -3.5312    3.8378    3.6110 H   0  0  0  0  0  0  0  0  0  0  0  0
   -7.1242    3.6988    3.9734 H   0  0  0  0  0  0  0  0  0  0  0  0
   -5.6359    4.3445    4.6366 H   0  0  0  0  0  0  0  0  0  0  0  0
   -7.1568    6.1964    4.0892 H   0  0  0  0  0  0  0  0  0  0  0  0
   -7.2898    5.6562    2.4067 H   0  0  0  0  0  0  0  0  0  0  0  0
   -5.7488    6.2800    3.0143 H   0  0  0  0  0  0  0  0  0  0  0  0
   -7.1801    3.1062    1.4314 H   0  0  0  0  0  0  0  0  0  0  0  0
   -5.8982    1.9321   -0.3128 H   0  0  0  0  0  0  0  0  0  0  0  0
   -3.6312    0.3635   -2.8296 H   0  0  0  0  0  0  0  0  0  0  0  0
   -3.7141   -1.2734   -2.3110 H   0  0  0  0  0  0  0  0  0  0  0  0
   -1.6209   -2.4818   -1.5210 H   0  0  0  0  0  0  0  0  0  0  0  0
    0.7964   -2.6724   -1.8066 H   0  0  0  0  0  0  0  0  0  0  0  0
    2.8004   -1.7587   -2.4133 H   0  0  0  0  0  0  0  0  0  0  0  0
    4.8470   -1.2586   -3.9634 H   0  0  0  0  0  0  0  0  0  0  0  0
    5.5033    0.2957   -3.4649 H   0  0  0  0  0  0  0  0  0  0  0  0
    5.0866    0.7972   -0.7773 H   0  0  0  0  0  0  0  0  0  0  0  0
    5.7871   -0.1425    1.3898 H   0  0  0  0  0  0  0  0  0  0  0  0
    8.2964   -1.2240    2.3936 H   0  0  0  0  0  0  0  0  0  0  0  0
    8.5760   -2.6751    3.3684 H   0  0  0  0  0  0  0  0  0  0  0  0
   10.2323   -2.5881    1.5409 H   0  0  0  0  0  0  0  0  0  0  0  0
    9.1461   -3.9644    1.2756 H   0  0  0  0  0  0  0  0  0  0  0  0
    8.9505   -2.4826    0.3278 H   0  0  0  0  0  0  0  0  0  0  0  0
    6.2635   -4.0246   -0.4484 H   0  0  0  0  0  0  0  0  0  0  0  0
    5.5602   -3.0912   -2.6110 H   0  0  0  0  0  0  0  0  0  0  0  0
    0.9203    1.3557   -3.3643 H   0  0  0  0  0  0  0  0  0  0  0  0
   -1.4813    1.5367   -3.0667 H   0  0  0  0  0  0  0  0  0  0  0  0
  1  2  1  0
  2  3  1  0
  3  4  1  0
  4  5  1  0
  5  6  1  0
  6  7  1  0
  7  8  2  0
  8  9  1  0
  9 10  1  0
 10 11  1  0
  9 12  2  0
 12 13  1  0
  4 14  1  0
 14 15  1  0
 15 16  1  0
 16 17  2  0
 17 18  1  0
 18 19  1  0
 19 20  1  0
 20 21  2  0
 20 22  1  0
 22 23  1  0
 23 24  1  0
 24 25  2  0
 25 26  1  0
 26 27  1  0
 27 28  2  0
 27 29  2  0
 27 30  1  0
 30 31  1  0
 26 32  2  0
 32 33  1  0
 18 34  2  0
 34 35  1  0
 13  6  2  0
 35 15  2  0
 33 23  2  0
  1 36  1  0
  1 37  1  0
  1 38  1  0
  2 39  1  0
  2 40  1  0
  3 41  1  0
  3 42  1  0
  5 43  1  0
  5 44  1  0
  7 45  1  0
  8 46  1  0
 10 47  1  0
 10 48  1  0
 11 49  1  0
 11 50  1  0
 11 51  1  0
 12 52  1  0
 13 53  1  0
 14 54  1  0
 14 55  1  0
 16 56  1  0
 17 57  1  0
 19 58  1  0
 22 59  1  0
 22 60  1  0
 24 61  1  0
 25 62  1  0
 30 63  1  0
 30 64  1  0
 31 65  1  0
 31 66  1  0
 31 67  1  0
 32 68  1  0
 33 69  1  0
 34 70  1  0
 35 71  1  0
M  END
>  <QED>  (142) 
0.356

>  <MW>  (142) 
492.7

$$$$
CHEMBL3105674
     RDKit          3D

 56 59  0  0  0  0  0  0  0  0999 V2000
    8.1912   -0.6430   -0.1444 C   0  0  0  0  0  0  0  0  0  0  0  0
    7.5179   -0.0786   -1.3784 C   0  0  0  0  0  0  0  0  0  0  0  0
    5.9621   -0.8571   -1.7590 S   0  0  0  0  0  0  0  0  0  0  0  0
    5.3805   -0.1616   -2.8922 O   0  0  0  0  0  0  0  0  0  0  0  0
    6.1677   -2.2927   -1.8041 O   0  0  0  0  0  0  0  0  0  0  0  0
    4.9296   -0.5007   -0.3563 C   0  0  0  0  0  0  0  0  0  0  0  0
    4.6602   -1.4982    0.5829 C   0  0  0  0  0  0  0  0  0  0  0  0
    3.8413   -1.2102    1.6762 C   0  0  0  0  0  0  0  0  0  0  0  0
    3.2786    0.0662    1.8259 C   0  0  0  0  0  0  0  0  0  0  0  0
    2.3863    0.3782    3.0045 C   0  0  0  0  0  0  0  0  0  0  0  0
    0.9799    0.7920    2.5953 C   0  0  0  0  0  0  0  0  0  0  0  0
    0.5975    1.9450    2.7690 O   0  0  0  0  0  0  0  0  0  0  0  0
    0.2611   -0.2501    2.0531 N   0  0  0  0  0  0  0  0  0  0  0  0
   -1.0326   -0.2217    1.6043 C   0  0  0  0  0  0  0  0  0  0  0  0
   -1.5717   -1.2814    1.0556 N   0  0  0  0  0  0  0  0  0  0  0  0
   -2.8827   -1.0079    0.6772 C   0  0  0  0  0  0  0  0  0  0  0  0
   -3.6772   -2.0507    0.0374 C   0  0  0  0  0  0  0  0  0  0  0  0
   -3.5951   -3.3641    0.5220 C   0  0  0  0  0  0  0  0  0  0  0  0
   -4.3259   -4.3923   -0.0779 C   0  0  0  0  0  0  0  0  0  0  0  0
   -5.1399   -4.1190   -1.1747 C   0  0  0  0  0  0  0  0  0  0  0  0
   -5.2189   -2.8208   -1.6752 C   0  0  0  0  0  0  0  0  0  0  0  0
   -4.4871   -1.7913   -1.0763 C   0  0  0  0  0  0  0  0  0  0  0  0
   -3.3100    0.2795    0.9608 C   0  0  0  0  0  0  0  0  0  0  0  0
   -4.6122    0.8910    0.8003 C   0  0  0  0  0  0  0  0  0  0  0  0
   -5.6571    0.3283    1.1232 O   0  0  0  0  0  0  0  0  0  0  0  0
   -4.7271    2.2550    0.2030 C   0  0  0  0  0  0  0  0  0  0  0  0
   -3.8298    2.7151   -0.7711 C   0  0  0  0  0  0  0  0  0  0  0  0
   -3.9853    3.9915   -1.3167 C   0  0  0  0  0  0  0  0  0  0  0  0
   -5.0393    4.8060   -0.9031 C   0  0  0  0  0  0  0  0  0  0  0  0
   -5.9456    4.3465    0.0514 C   0  0  0  0  0  0  0  0  0  0  0  0
   -5.7944    3.0721    0.6001 C   0  0  0  0  0  0  0  0  0  0  0  0
   -2.0363    1.1398    1.7330 S   0  0  0  0  0  0  0  0  0  0  0  0
    3.5533    1.0546    0.8673 C   0  0  0  0  0  0  0  0  0  0  0  0
    4.3701    0.7721   -0.2279 C   0  0  0  0  0  0  0  0  0  0  0  0
    8.3552   -1.7210   -0.2383 H   0  0  0  0  0  0  0  0  0  0  0  0
    7.5916   -0.4710    0.7541 H   0  0  0  0  0  0  0  0  0  0  0  0
    9.1638   -0.1642    0.0063 H   0  0  0  0  0  0  0  0  0  0  0  0
    8.1584   -0.2257   -2.2543 H   0  0  0  0  0  0  0  0  0  0  0  0
    7.3369    0.9950   -1.2692 H   0  0  0  0  0  0  0  0  0  0  0  0
    5.0793   -2.4966    0.4731 H   0  0  0  0  0  0  0  0  0  0  0  0
    3.6465   -1.9933    2.4069 H   0  0  0  0  0  0  0  0  0  0  0  0
    2.3078   -0.4834    3.6790 H   0  0  0  0  0  0  0  0  0  0  0  0
    2.8377    1.1882    3.5904 H   0  0  0  0  0  0  0  0  0  0  0  0
    0.7163   -1.1371    1.8844 H   0  0  0  0  0  0  0  0  0  0  0  0
   -2.9600   -3.5917    1.3756 H   0  0  0  0  0  0  0  0  0  0  0  0
   -4.2584   -5.4044    0.3120 H   0  0  0  0  0  0  0  0  0  0  0  0
   -5.7109   -4.9175   -1.6411 H   0  0  0  0  0  0  0  0  0  0  0  0
   -5.8509   -2.6077   -2.5336 H   0  0  0  0  0  0  0  0  0  0  0  0
   -4.5584   -0.7934   -1.4991 H   0  0  0  0  0  0  0  0  0  0  0  0
   -3.0122    2.0932   -1.1263 H   0  0  0  0  0  0  0  0  0  0  0  0
   -3.2862    4.3502   -2.0685 H   0  0  0  0  0  0  0  0  0  0  0  0
   -5.1582    5.7990   -1.3304 H   0  0  0  0  0  0  0  0  0  0  0  0
   -6.7721    4.9787    0.3668 H   0  0  0  0  0  0  0  0  0  0  0  0
   -6.5108    2.7182    1.3394 H   0  0  0  0  0  0  0  0  0  0  0  0
    3.1218    2.0509    0.9643 H   0  0  0  0  0  0  0  0  0  0  0  0
    4.5538    1.5418   -0.9747 H   0  0  0  0  0  0  0  0  0  0  0  0
  1  2  1  0
  2  3  1  0
  3  4  2  0
  3  5  2  0
  3  6  1  0
  6  7  1  0
  7  8  2  0
  8  9  1  0
  9 10  1  0
 10 11  1  0
 11 12  2  0
 11 13  1  0
 13 14  1  0
 14 15  2  0
 15 16  1  0
 16 17  1  0
 17 18  2  0
 18 19  1  0
 19 20  2  0
 20 21  1  0
 21 22  2  0
 16 23  2  0
 23 24  1  0
 24 25  2  0
 24 26  1  0
 26 27  2  0
 27 28  1  0
 28 29  2  0
 29 30  1  0
 30 31  2  0
 23 32  1  0
  9 33  2  0
 33 34  1  0
 34  6  2  0
 32 14  1  0
 22 17  1  0
 31 26  1  0
  1 35  1  0
  1 36  1  0
  1 37  1  0
  2 38  1  0
  2 39  1  0
  7 40  1  0
  8 41  1  0
 10 42  1  0
 10 43  1  0
 13 44  1  0
 18 45  1  0
 19 46  1  0
 20 47  1  0
 21 48  1  0
 22 49  1  0
 27 50  1  0
 28 51  1  0
 29 52  1  0
 30 53  1  0
 31 54  1  0
 33 55  1  0
 34 56  1  0
M  END
>  <QED>  (143) 
0.35

>  <MW>  (143) 
490.6

$$$$
CHEMBL3105678
     RDKit          3D

 57 60  0  0  0  0  0  0  0  0999 V2000
    8.1633    3.8344   -2.2482 C   0  0  0  0  0  0  0  0  0  0  0  0
    7.3875    2.9370   -1.3048 C   0  0  0  0  0  0  0  0  0  0  0  0
    5.6381    2.9832   -1.6483 S   0  0  0  0  0  0  0  0  0  0  0  0
    5.4049    2.3831   -2.9479 O   0  0  0  0  0  0  0  0  0  0  0  0
    5.1444    4.3124   -1.3408 O   0  0  0  0  0  0  0  0  0  0  0  0
    4.9639    1.8756   -0.4298 C   0  0  0  0  0  0  0  0  0  0  0  0
    4.8893    0.5098   -0.7094 C   0  0  0  0  0  0  0  0  0  0  0  0
    4.3513   -0.3567    0.2428 C   0  0  0  0  0  0  0  0  0  0  0  0
    3.8698    0.1379    1.4655 C   0  0  0  0  0  0  0  0  0  0  0  0
    3.2782   -0.8048    2.4889 C   0  0  0  0  0  0  0  0  0  0  0  0
    2.0805   -1.5944    1.9775 C   0  0  0  0  0  0  0  0  0  0  0  0
    2.0844   -2.8204    2.0278 O   0  0  0  0  0  0  0  0  0  0  0  0
    1.0572   -0.7864    1.5331 N   0  0  0  0  0  0  0  0  0  0  0  0
   -0.1433   -1.1802    1.0035 C   0  0  0  0  0  0  0  0  0  0  0  0
   -1.0260   -0.2905    0.6162 N   0  0  0  0  0  0  0  0  0  0  0  0
   -2.1328   -0.9310    0.0811 C   0  0  0  0  0  0  0  0  0  0  0  0
   -3.2187   -0.1468   -0.4871 C   0  0  0  0  0  0  0  0  0  0  0  0
   -3.7458   -0.4418   -1.7517 C   0  0  0  0  0  0  0  0  0  0  0  0
   -4.7961    0.3166   -2.2724 C   0  0  0  0  0  0  0  0  0  0  0  0
   -5.3202    1.3808   -1.5378 C   0  0  0  0  0  0  0  0  0  0  0  0
   -4.7881    1.6957   -0.2834 C   0  0  0  0  0  0  0  0  0  0  0  0
   -5.3231    2.7903    0.4715 C   0  0  0  0  0  0  0  0  0  0  0  0
   -5.7597    3.6709    1.0887 N   0  0  0  0  0  0  0  0  0  0  0  0
   -3.7344    0.9363    0.2367 C   0  0  0  0  0  0  0  0  0  0  0  0
   -2.1021   -2.3133    0.1601 C   0  0  0  0  0  0  0  0  0  0  0  0
   -3.0785   -3.3170   -0.2026 C   0  0  0  0  0  0  0  0  0  0  0  0
   -2.8142   -4.2880   -0.9090 O   0  0  0  0  0  0  0  0  0  0  0  0
   -4.4836   -3.1716    0.2837 C   0  0  0  0  0  0  0  0  0  0  0  0
   -5.5204   -3.7053   -0.4938 C   0  0  0  0  0  0  0  0  0  0  0  0
   -6.8466   -3.5772   -0.0785 C   0  0  0  0  0  0  0  0  0  0  0  0
   -7.1424   -2.9257    1.1181 C   0  0  0  0  0  0  0  0  0  0  0  0
   -6.1145   -2.4097    1.9068 C   0  0  0  0  0  0  0  0  0  0  0  0
   -4.7856   -2.5361    1.4965 C   0  0  0  0  0  0  0  0  0  0  0  0
   -0.5899   -2.8074    0.8020 S   0  0  0  0  0  0  0  0  0  0  0  0
    3.9464    1.5142    1.7273 C   0  0  0  0  0  0  0  0  0  0  0  0
    4.4860    2.3852    0.7793 C   0  0  0  0  0  0  0  0  0  0  0  0
    8.0223    3.5276   -3.2895 H   0  0  0  0  0  0  0  0  0  0  0  0
    7.8369    4.8755   -2.1598 H   0  0  0  0  0  0  0  0  0  0  0  0
    9.2328    3.7912   -2.0210 H   0  0  0  0  0  0  0  0  0  0  0  0
    7.5314    3.2598   -0.2694 H   0  0  0  0  0  0  0  0  0  0  0  0
    7.7201    1.8999   -1.4089 H   0  0  0  0  0  0  0  0  0  0  0  0
    5.2380    0.1134   -1.6611 H   0  0  0  0  0  0  0  0  0  0  0  0
    4.3014   -1.4225    0.0200 H   0  0  0  0  0  0  0  0  0  0  0  0
    4.0570   -1.5095    2.8053 H   0  0  0  0  0  0  0  0  0  0  0  0
    2.9606   -0.2615    3.3873 H   0  0  0  0  0  0  0  0  0  0  0  0
    1.1810    0.2172    1.5280 H   0  0  0  0  0  0  0  0  0  0  0  0
   -3.3389   -1.2551   -2.3506 H   0  0  0  0  0  0  0  0  0  0  0  0
   -5.2019    0.0802   -3.2537 H   0  0  0  0  0  0  0  0  0  0  0  0
   -6.1394    1.9651   -1.9534 H   0  0  0  0  0  0  0  0  0  0  0  0
   -3.3139    1.1839    1.2107 H   0  0  0  0  0  0  0  0  0  0  0  0
   -5.2987   -4.2204   -1.4267 H   0  0  0  0  0  0  0  0  0  0  0  0
   -7.6484   -3.9896   -0.6864 H   0  0  0  0  0  0  0  0  0  0  0  0
   -8.1763   -2.8289    1.4419 H   0  0  0  0  0  0  0  0  0  0  0  0
   -6.3496   -1.9148    2.8465 H   0  0  0  0  0  0  0  0  0  0  0  0
   -4.0027   -2.1448    2.1408 H   0  0  0  0  0  0  0  0  0  0  0  0
    3.5844    1.9218    2.6697 H   0  0  0  0  0  0  0  0  0  0  0  0
    4.5249    3.4524    0.9896 H   0  0  0  0  0  0  0  0  0  0  0  0
  1  2  1  0
  2  3  1  0
  3  4  2  0
  3  5  2  0
  3  6  1  0
  6  7  1  0
  7  8  2  0
  8  9  1  0
  9 10  1  0
 10 11  1  0
 11 12  2  0
 11 13  1  0
 13 14  1  0
 14 15  2  0
 15 16  1  0
 16 17  1  0
 17 18  2  0
 18 19  1  0
 19 20  2  0
 20 21  1  0
 21 22  1  0
 22 23  3  0
 21 24  2  0
 16 25  2  0
 25 26  1  0
 26 27  2  0
 26 28  1  0
 28 29  2  0
 29 30  1  0
 30 31  2  0
 31 32  1  0
 32 33  2  0
 25 34  1  0
  9 35  2  0
 35 36  1  0
 36  6  2  0
 34 14  1  0
 24 17  1  0
 33 28  1  0
  1 37  1  0
  1 38  1  0
  1 39  1  0
  2 40  1  0
  2 41  1  0
  7 42  1  0
  8 43  1  0
 10 44  1  0
 10 45  1  0
 13 46  1  0
 18 47  1  0
 19 48  1  0
 20 49  1  0
 24 50  1  0
 29 51  1  0
 30 52  1  0
 31 53  1  0
 32 54  1  0
 33 55  1  0
 35 56  1  0
 36 57  1  0
M  END
>  <QED>  (144) 
0.334

>  <MW>  (144) 
515.6

$$$$
CHEMBL3314023
     RDKit          3D

 68 71  0  0  0  0  0  0  0  0999 V2000
   -7.4468   -2.8097    0.9056 C   0  0  0  0  0  0  0  0  0  0  0  0
   -6.1284   -2.2685    1.3705 C   0  0  0  0  0  0  0  0  0  0  0  0
   -4.9332   -2.8767    0.9932 C   0  0  0  0  0  0  0  0  0  0  0  0
   -3.7100   -2.3776    1.4500 C   0  0  0  0  0  0  0  0  0  0  0  0
   -3.6406   -1.2592    2.3066 C   0  0  0  0  0  0  0  0  0  0  0  0
   -2.2873   -0.7059    2.7800 C   0  0  0  0  0  0  0  0  0  0  0  0
   -1.1697   -1.5858    2.4641 N   0  0  0  0  0  0  0  0  0  0  0  0
   -0.0994   -1.7129    3.3250 C   0  0  0  0  0  0  0  0  0  0  0  0
   -0.1201   -1.3448    4.4964 O   0  0  0  0  0  0  0  0  0  0  0  0
    1.1172   -2.3977    2.7184 C   0  0  0  0  0  0  0  0  0  0  0  0
    1.5564   -1.7842    1.4082 C   0  0  0  0  0  0  0  0  0  0  0  0
    1.5656   -2.5397    0.2307 C   0  0  0  0  0  0  0  0  0  0  0  0
    1.9227   -1.9445   -0.9816 C   0  0  0  0  0  0  0  0  0  0  0  0
    2.2671   -0.5913   -1.0403 C   0  0  0  0  0  0  0  0  0  0  0  0
    2.5906   -0.1360   -2.2859 O   0  0  0  0  0  0  0  0  0  0  0  0
    2.4760    1.2683   -2.5497 C   0  0  0  0  0  0  0  0  0  0  0  0
    3.8454    1.9738   -2.6426 C   0  0  0  0  0  0  0  0  0  0  0  0
    4.5094    1.9856   -1.3739 O   0  0  0  0  0  0  0  0  0  0  0  0
    4.7423    1.3979   -3.7209 C   0  0  0  0  0  0  0  0  0  0  0  0
    5.4386    0.1996   -3.4891 C   0  0  0  0  0  0  0  0  0  0  0  0
    6.2445   -0.3500   -4.4775 C   0  0  0  0  0  0  0  0  0  0  0  0
    6.3359    0.3177   -5.6811 C   0  0  0  0  0  0  0  0  0  0  0  0
    5.6837    1.4682   -5.9500 N   0  0  0  0  0  0  0  0  0  0  0  0
    4.8918    1.9944   -4.9808 C   0  0  0  0  0  0  0  0  0  0  0  0
    4.1961    3.2726   -5.3526 C   0  0  0  0  0  0  0  0  0  0  0  0
    2.2916    0.1552    0.1343 C   0  0  0  0  0  0  0  0  0  0  0  0
    1.9385   -0.4363    1.3510 C   0  0  0  0  0  0  0  0  0  0  0  0
   -1.9517    0.6762    2.2164 C   0  0  0  0  0  0  0  0  0  0  0  0
   -1.3309    1.6297    3.0419 C   0  0  0  0  0  0  0  0  0  0  0  0
   -0.9703    2.8813    2.5395 C   0  0  0  0  0  0  0  0  0  0  0  0
   -1.2155    3.1948    1.2044 C   0  0  0  0  0  0  0  0  0  0  0  0
   -1.8164    2.2558    0.3688 C   0  0  0  0  0  0  0  0  0  0  0  0
   -2.1760    1.0021    0.8680 C   0  0  0  0  0  0  0  0  0  0  0  0
   -4.8595   -0.6638    2.7178 C   0  0  0  0  0  0  0  0  0  0  0  0
   -4.9073    0.5339    3.6322 C   0  0  0  0  0  0  0  0  0  0  0  0
   -6.0823   -1.1720    2.2371 C   0  0  0  0  0  0  0  0  0  0  0  0
   -7.3296   -3.4269    0.0080 H   0  0  0  0  0  0  0  0  0  0  0  0
   -7.8971   -3.4240    1.6918 H   0  0  0  0  0  0  0  0  0  0  0  0
   -8.1320   -1.9931    0.6540 H   0  0  0  0  0  0  0  0  0  0  0  0
   -4.9405   -3.7442    0.3373 H   0  0  0  0  0  0  0  0  0  0  0  0
   -2.8088   -2.8891    1.1230 H   0  0  0  0  0  0  0  0  0  0  0  0
   -2.3499   -0.6405    3.8733 H   0  0  0  0  0  0  0  0  0  0  0  0
   -0.9573   -1.6609    1.4783 H   0  0  0  0  0  0  0  0  0  0  0  0
    1.9485   -2.3353    3.4310 H   0  0  0  0  0  0  0  0  0  0  0  0
    0.8762   -3.4600    2.5966 H   0  0  0  0  0  0  0  0  0  0  0  0
    1.2919   -3.5923    0.2422 H   0  0  0  0  0  0  0  0  0  0  0  0
    1.9245   -2.5371   -1.8933 H   0  0  0  0  0  0  0  0  0  0  0  0
    1.8238    1.7727   -1.8275 H   0  0  0  0  0  0  0  0  0  0  0  0
    1.9710    1.3508   -3.5198 H   0  0  0  0  0  0  0  0  0  0  0  0
    3.6518    3.0298   -2.8546 H   0  0  0  0  0  0  0  0  0  0  0  0
    5.4670    2.0222   -1.5440 H   0  0  0  0  0  0  0  0  0  0  0  0
    5.3386   -0.3178   -2.5359 H   0  0  0  0  0  0  0  0  0  0  0  0
    6.7805   -1.2781   -4.3127 H   0  0  0  0  0  0  0  0  0  0  0  0
    6.9494   -0.0673   -6.4899 H   0  0  0  0  0  0  0  0  0  0  0  0
    4.3925    3.5339   -6.3973 H   0  0  0  0  0  0  0  0  0  0  0  0
    4.5578    4.0959   -4.7282 H   0  0  0  0  0  0  0  0  0  0  0  0
    3.1134    3.1701   -5.2353 H   0  0  0  0  0  0  0  0  0  0  0  0
    2.5991    1.1966    0.1441 H   0  0  0  0  0  0  0  0  0  0  0  0
    1.9549    0.1721    2.2542 H   0  0  0  0  0  0  0  0  0  0  0  0
   -1.1144    1.3932    4.0829 H   0  0  0  0  0  0  0  0  0  0  0  0
   -0.4928    3.6098    3.1903 H   0  0  0  0  0  0  0  0  0  0  0  0
   -0.9351    4.1697    0.8153 H   0  0  0  0  0  0  0  0  0  0  0  0
   -2.0073    2.4950   -0.6741 H   0  0  0  0  0  0  0  0  0  0  0  0
   -2.6368    0.2832    0.1935 H   0  0  0  0  0  0  0  0  0  0  0  0
   -5.9093    0.6685    4.0547 H   0  0  0  0  0  0  0  0  0  0  0  0
   -4.2287    0.4133    4.4817 H   0  0  0  0  0  0  0  0  0  0  0  0
   -4.6523    1.4435    3.0800 H   0  0  0  0  0  0  0  0  0  0  0  0
   -7.0170   -0.7039    2.5450 H   0  0  0  0  0  0  0  0  0  0  0  0
  1  2  1  0
  2  3  1  0
  3  4  2  0
  4  5  1  0
  5  6  1  0
  6  7  1  0
  7  8  1  0
  8  9  2  0
  8 10  1  0
 10 11  1  0
 11 12  1  0
 12 13  2  0
 13 14  1  0
 14 15  1  0
 15 16  1  0
 16 17  1  0
 17 18  1  0
 17 19  1  0
 19 20  1  0
 20 21  2  0
 21 22  1  0
 22 23  2  0
 23 24  1  0
 24 25  1  0
 14 26  2  0
 26 27  1  0
  6 28  1  0
 28 29  2  0
 29 30  1  0
 30 31  2  0
 31 32  1  0
 32 33  2  0
  5 34  2  0
 34 35  1  0
 34 36  1  0
 36  2  2  0
 27 11  2  0
 33 28  1  0
 24 19  2  0
  1 37  1  0
  1 38  1  0
  1 39  1  0
  3 40  1  0
  4 41  1  0
  6 42  1  0
  7 43  1  0
 10 44  1  0
 10 45  1  0
 12 46  1  0
 13 47  1  0
 16 48  1  0
 16 49  1  0
 17 50  1  0
 18 51  1  0
 20 52  1  0
 21 53  1  0
 22 54  1  0
 25 55  1  0
 25 56  1  0
 25 57  1  0
 26 58  1  0
 27 59  1  0
 29 60  1  0
 30 61  1  0
 31 62  1  0
 32 63  1  0
 33 64  1  0
 35 65  1  0
 35 66  1  0
 35 67  1  0
 36 68  1  0
M  END
>  <QED>  (145) 
0.329

>  <MW>  (145) 
480.6

$$$$
CHEMBL3105686
     RDKit          3D

 57 60  0  0  0  0  0  0  0  0999 V2000
    8.8059    0.2631   -0.1984 C   0  0  0  0  0  0  0  0  0  0  0  0
    8.2059    0.5673    1.1589 C   0  0  0  0  0  0  0  0  0  0  0  0
    6.8118   -0.4626    1.5676 S   0  0  0  0  0  0  0  0  0  0  0  0
    6.2742   -0.0036    2.8347 O   0  0  0  0  0  0  0  0  0  0  0  0
    7.2013   -1.8495    1.3927 O   0  0  0  0  0  0  0  0  0  0  0  0
    5.5960   -0.0806    0.3281 C   0  0  0  0  0  0  0  0  0  0  0  0
    5.3492   -0.9834   -0.7081 C   0  0  0  0  0  0  0  0  0  0  0  0
    4.3893   -0.6759   -1.6736 C   0  0  0  0  0  0  0  0  0  0  0  0
    3.6644    0.5232   -1.5991 C   0  0  0  0  0  0  0  0  0  0  0  0
    2.6245    0.8546   -2.6457 C   0  0  0  0  0  0  0  0  0  0  0  0
    1.2273    1.0811   -2.0874 C   0  0  0  0  0  0  0  0  0  0  0  0
    0.5952    2.0950   -2.3756 O   0  0  0  0  0  0  0  0  0  0  0  0
    0.7704    0.0340   -1.3107 N   0  0  0  0  0  0  0  0  0  0  0  0
   -0.4652    0.0146   -0.7122 C   0  0  0  0  0  0  0  0  0  0  0  0
   -1.5161    0.8947   -0.6915 C   0  0  0  0  0  0  0  0  0  0  0  0
   -2.6075    0.4127    0.1078 C   0  0  0  0  0  0  0  0  0  0  0  0
   -3.8434    1.1398    0.3766 C   0  0  0  0  0  0  0  0  0  0  0  0
   -4.6237    1.6084   -0.6876 C   0  0  0  0  0  0  0  0  0  0  0  0
   -5.8118    2.2981   -0.4381 C   0  0  0  0  0  0  0  0  0  0  0  0
   -6.2218    2.5307    0.8739 C   0  0  0  0  0  0  0  0  0  0  0  0
   -5.4427    2.0804    1.9385 C   0  0  0  0  0  0  0  0  0  0  0  0
   -4.2540    1.3908    1.6924 C   0  0  0  0  0  0  0  0  0  0  0  0
   -2.3416   -0.8524    0.6172 C   0  0  0  0  0  0  0  0  0  0  0  0
   -3.1599   -1.7430    1.4252 C   0  0  0  0  0  0  0  0  0  0  0  0
   -2.7607   -2.2589    2.4687 O   0  0  0  0  0  0  0  0  0  0  0  0
   -4.5494   -2.0647    0.9806 C   0  0  0  0  0  0  0  0  0  0  0  0
   -5.5053   -2.3927    1.9519 C   0  0  0  0  0  0  0  0  0  0  0  0
   -6.8129   -2.7023    1.5748 C   0  0  0  0  0  0  0  0  0  0  0  0
   -7.1692   -2.6961    0.2270 C   0  0  0  0  0  0  0  0  0  0  0  0
   -6.2192   -2.3882   -0.7465 C   0  0  0  0  0  0  0  0  0  0  0  0
   -4.9092   -2.0784   -0.3740 C   0  0  0  0  0  0  0  0  0  0  0  0
   -0.7607   -1.3803    0.2029 S   0  0  0  0  0  0  0  0  0  0  0  0
    3.9196    1.4156   -0.5458 C   0  0  0  0  0  0  0  0  0  0  0  0
    4.8766    1.1123    0.4233 C   0  0  0  0  0  0  0  0  0  0  0  0
    8.0943    0.4615   -1.0052 H   0  0  0  0  0  0  0  0  0  0  0  0
    9.1141   -0.7845   -0.2716 H   0  0  0  0  0  0  0  0  0  0  0  0
    9.6876    0.8885   -0.3693 H   0  0  0  0  0  0  0  0  0  0  0  0
    8.9520    0.4015    1.9432 H   0  0  0  0  0  0  0  0  0  0  0  0
    7.8803    1.6103    1.2182 H   0  0  0  0  0  0  0  0  0  0  0  0
    5.8955   -1.9225   -0.7727 H   0  0  0  0  0  0  0  0  0  0  0  0
    4.2128   -1.3824   -2.4830 H   0  0  0  0  0  0  0  0  0  0  0  0
    2.5551    0.0575   -3.3959 H   0  0  0  0  0  0  0  0  0  0  0  0
    2.9427    1.7612   -3.1748 H   0  0  0  0  0  0  0  0  0  0  0  0
    1.3797   -0.7495   -1.1077 H   0  0  0  0  0  0  0  0  0  0  0  0
   -1.5126    1.8557   -1.1925 H   0  0  0  0  0  0  0  0  0  0  0  0
   -4.3189    1.4334   -1.7167 H   0  0  0  0  0  0  0  0  0  0  0  0
   -6.4170    2.6545   -1.2676 H   0  0  0  0  0  0  0  0  0  0  0  0
   -7.1468    3.0681    1.0672 H   0  0  0  0  0  0  0  0  0  0  0  0
   -5.7580    2.2692    2.9615 H   0  0  0  0  0  0  0  0  0  0  0  0
   -3.6517    1.0594    2.5360 H   0  0  0  0  0  0  0  0  0  0  0  0
   -5.2343   -2.4035    3.0059 H   0  0  0  0  0  0  0  0  0  0  0  0
   -7.5519   -2.9497    2.3328 H   0  0  0  0  0  0  0  0  0  0  0  0
   -8.1884   -2.9371   -0.0656 H   0  0  0  0  0  0  0  0  0  0  0  0
   -6.4988   -2.3922   -1.7971 H   0  0  0  0  0  0  0  0  0  0  0  0
   -4.1835   -1.8571   -1.1519 H   0  0  0  0  0  0  0  0  0  0  0  0
    3.3652    2.3508   -0.4683 H   0  0  0  0  0  0  0  0  0  0  0  0
    5.0453    1.8027    1.2473 H   0  0  0  0  0  0  0  0  0  0  0  0
  1  2  1  0
  2  3  1  0
  3  4  2  0
  3  5  2  0
  3  6  1  0
  6  7  1  0
  7  8  2  0
  8  9  1  0
  9 10  1  0
 10 11  1  0
 11 12  2  0
 11 13  1  0
 13 14  1  0
 14 15  2  0
 15 16  1  0
 16 17  1  0
 17 18  2  0
 18 19  1  0
 19 20  2  0
 20 21  1  0
 21 22  2  0
 16 23  2  0
 23 24  1  0
 24 25  2  0
 24 26  1  0
 26 27  2  0
 27 28  1  0
 28 29  2  0
 29 30  1  0
 30 31  2  0
 23 32  1  0
  9 33  2  0
 33 34  1  0
 34  6  2  0
 32 14  1  0
 22 17  1  0
 31 26  1  0
  1 35  1  0
  1 36  1  0
  1 37  1  0
  2 38  1  0
  2 39  1  0
  7 40  1  0
  8 41  1  0
 10 42  1  0
 10 43  1  0
 13 44  1  0
 15 45  1  0
 18 46  1  0
 19 47  1  0
 20 48  1  0
 21 49  1  0
 22 50  1  0
 27 51  1  0
 28 52  1  0
 29 53  1  0
 30 54  1  0
 31 55  1  0
 33 56  1  0
 34 57  1  0
M  END
>  <QED>  (146) 
0.326

>  <MW>  (146) 
489.6

$$$$
CHEMBL3314028
     RDKit          3D

 68 71  0  0  0  0  0  0  0  0999 V2000
   -3.4471   -2.0036   -3.7959 C   0  0  0  0  0  0  0  0  0  0  0  0
   -3.5534   -1.3916   -2.4311 C   0  0  0  0  0  0  0  0  0  0  0  0
   -2.4176   -0.8934   -1.7864 C   0  0  0  0  0  0  0  0  0  0  0  0
   -2.5201   -0.2957   -0.5267 C   0  0  0  0  0  0  0  0  0  0  0  0
   -3.7626   -0.1788    0.1182 C   0  0  0  0  0  0  0  0  0  0  0  0
   -3.9289    0.4816    1.4870 C   0  0  0  0  0  0  0  0  0  0  0  0
   -2.7143    0.4433    2.2812 N   0  0  0  0  0  0  0  0  0  0  0  0
   -2.3917   -0.6359    3.0717 C   0  0  0  0  0  0  0  0  0  0  0  0
   -3.1626   -1.5617    3.3083 O   0  0  0  0  0  0  0  0  0  0  0  0
   -0.9993   -0.5713    3.6779 C   0  0  0  0  0  0  0  0  0  0  0  0
    0.0919   -0.5041    2.6365 C   0  0  0  0  0  0  0  0  0  0  0  0
    0.2972   -1.5702    1.7583 C   0  0  0  0  0  0  0  0  0  0  0  0
    1.2800   -1.4909    0.7658 C   0  0  0  0  0  0  0  0  0  0  0  0
    2.1004   -0.3598    0.6186 C   0  0  0  0  0  0  0  0  0  0  0  0
    3.0572   -0.3251   -0.4063 N   0  0  0  0  0  0  0  0  0  0  0  0
    3.5365    0.9923   -0.8937 C   0  0  0  0  0  0  0  0  0  0  0  0
    4.6947    1.5998   -0.1066 C   0  0  0  0  0  0  0  0  0  0  0  0
    5.3820    1.0817    0.7588 O   0  0  0  0  0  0  0  0  0  0  0  0
    4.9467    2.8742   -0.4836 O   0  0  0  0  0  0  0  0  0  0  0  0
    4.0568   -1.4189   -0.3550 C   0  0  0  0  0  0  0  0  0  0  0  0
    4.8835   -1.6276   -1.5810 C   0  0  0  0  0  0  0  0  0  0  0  0
    6.2970   -1.5740   -1.7262 C   0  0  0  0  0  0  0  0  0  0  0  0
    7.3304   -1.2966   -0.7005 C   0  0  0  0  0  0  0  0  0  0  0  0
    6.6661   -1.8015   -2.9928 N   0  0  0  0  0  0  0  0  0  0  0  0
    5.4981   -2.0260   -3.6935 O   0  0  0  0  0  0  0  0  0  0  0  0
    4.4384   -1.9287   -2.8511 C   0  0  0  0  0  0  0  0  0  0  0  0
    3.1048   -2.1333   -3.4467 C   0  0  0  0  0  0  0  0  0  0  0  0
    1.8781    0.6994    1.5097 C   0  0  0  0  0  0  0  0  0  0  0  0
    0.8959    0.6303    2.5078 C   0  0  0  0  0  0  0  0  0  0  0  0
   -4.4232    1.9226    1.4219 C   0  0  0  0  0  0  0  0  0  0  0  0
   -3.9364    2.8434    0.4788 C   0  0  0  0  0  0  0  0  0  0  0  0
   -4.3898    4.1645    0.4716 C   0  0  0  0  0  0  0  0  0  0  0  0
   -5.3253    4.5881    1.4126 C   0  0  0  0  0  0  0  0  0  0  0  0
   -5.8069    3.6932    2.3647 C   0  0  0  0  0  0  0  0  0  0  0  0
   -5.3563    2.3718    2.3727 C   0  0  0  0  0  0  0  0  0  0  0  0
   -4.9008   -0.6629   -0.5483 C   0  0  0  0  0  0  0  0  0  0  0  0
   -4.7980   -1.2587   -1.8084 C   0  0  0  0  0  0  0  0  0  0  0  0
   -4.2182   -2.7673   -3.9427 H   0  0  0  0  0  0  0  0  0  0  0  0
   -3.5632   -1.2313   -4.5624 H   0  0  0  0  0  0  0  0  0  0  0  0
   -2.4766   -2.4928   -3.9303 H   0  0  0  0  0  0  0  0  0  0  0  0
   -1.4402   -0.9674   -2.2581 H   0  0  0  0  0  0  0  0  0  0  0  0
   -1.6117    0.0784   -0.0623 H   0  0  0  0  0  0  0  0  0  0  0  0
   -4.6815   -0.1148    2.0215 H   0  0  0  0  0  0  0  0  0  0  0  0
   -1.9906    1.1046    2.0390 H   0  0  0  0  0  0  0  0  0  0  0  0
   -0.8433   -1.4598    4.3014 H   0  0  0  0  0  0  0  0  0  0  0  0
   -0.9597    0.2955    4.3483 H   0  0  0  0  0  0  0  0  0  0  0  0
   -0.3213   -2.4646    1.8208 H   0  0  0  0  0  0  0  0  0  0  0  0
    1.3709   -2.3262    0.0751 H   0  0  0  0  0  0  0  0  0  0  0  0
    2.7063    1.7091   -0.9112 H   0  0  0  0  0  0  0  0  0  0  0  0
    3.8718    0.8872   -1.9316 H   0  0  0  0  0  0  0  0  0  0  0  0
    5.7132    3.1400    0.0676 H   0  0  0  0  0  0  0  0  0  0  0  0
    4.7064   -1.2736    0.5159 H   0  0  0  0  0  0  0  0  0  0  0  0
    3.5597   -2.3810   -0.1748 H   0  0  0  0  0  0  0  0  0  0  0  0
    7.4803   -0.2179   -0.5956 H   0  0  0  0  0  0  0  0  0  0  0  0
    7.0404   -1.7036    0.2728 H   0  0  0  0  0  0  0  0  0  0  0  0
    8.2903   -1.7482   -0.9731 H   0  0  0  0  0  0  0  0  0  0  0  0
    2.4137   -2.5690   -2.7186 H   0  0  0  0  0  0  0  0  0  0  0  0
    2.6905   -1.1788   -3.7850 H   0  0  0  0  0  0  0  0  0  0  0  0
    3.1571   -2.8094   -4.3057 H   0  0  0  0  0  0  0  0  0  0  0  0
    2.4779    1.6031    1.4721 H   0  0  0  0  0  0  0  0  0  0  0  0
    0.7716    1.4762    3.1810 H   0  0  0  0  0  0  0  0  0  0  0  0
   -3.2052    2.5404   -0.2671 H   0  0  0  0  0  0  0  0  0  0  0  0
   -4.0126    4.8627   -0.2713 H   0  0  0  0  0  0  0  0  0  0  0  0
   -5.6777    5.6162    1.4049 H   0  0  0  0  0  0  0  0  0  0  0  0
   -6.5326    4.0235    3.1035 H   0  0  0  0  0  0  0  0  0  0  0  0
   -5.7359    1.6894    3.1313 H   0  0  0  0  0  0  0  0  0  0  0  0
   -5.8826   -0.5760   -0.0862 H   0  0  0  0  0  0  0  0  0  0  0  0
   -5.6991   -1.6204   -2.2987 H   0  0  0  0  0  0  0  0  0  0  0  0
  1  2  1  0
  2  3  1  0
  3  4  2  0
  4  5  1  0
  5  6  1  0
  6  7  1  0
  7  8  1  0
  8  9  2  0
  8 10  1  0
 10 11  1  0
 11 12  1  0
 12 13  2  0
 13 14  1  0
 14 15  1  0
 15 16  1  0
 16 17  1  0
 17 18  2  0
 17 19  1  0
 15 20  1  0
 20 21  1  0
 21 22  1  0
 22 23  1  0
 22 24  2  0
 24 25  1  0
 25 26  1  0
 26 27  1  0
 14 28  2  0
 28 29  1  0
  6 30  1  0
 30 31  2  0
 31 32  1  0
 32 33  2  0
 33 34  1  0
 34 35  2  0
  5 36  2  0
 36 37  1  0
 37  2  2  0
 29 11  2  0
 35 30  1  0
 26 21  2  0
  1 38  1  0
  1 39  1  0
  1 40  1  0
  3 41  1  0
  4 42  1  0
  6 43  1  0
  7 44  1  0
 10 45  1  0
 10 46  1  0
 12 47  1  0
 13 48  1  0
 16 49  1  0
 16 50  1  0
 19 51  1  0
 20 52  1  0
 20 53  1  0
 23 54  1  0
 23 55  1  0
 23 56  1  0
 27 57  1  0
 27 58  1  0
 27 59  1  0
 28 60  1  0
 29 61  1  0
 31 62  1  0
 32 63  1  0
 33 64  1  0
 34 65  1  0
 35 66  1  0
 36 67  1  0
 37 68  1  0
M  END
>  <QED>  (147) 
0.315

>  <MW>  (147) 
497.6

$$$$
CHEMBL3598149
     RDKit          3D

 43 46  0  0  0  0  0  0  0  0999 V2000
    7.4206   -2.0300    1.3385 O   0  0  0  0  0  0  0  0  0  0  0  0
    6.7902   -1.0365    1.6478 C   0  0  0  0  0  0  0  0  0  0  0  0
    7.3478   -0.0518    2.3735 O   0  0  0  0  0  0  0  0  0  0  0  0
    5.3788   -0.7569    1.2929 C   0  0  0  0  0  0  0  0  0  0  0  0
    4.6797   -1.7090    0.5418 C   0  0  0  0  0  0  0  0  0  0  0  0
    3.3456   -1.4823    0.1872 C   0  0  0  0  0  0  0  0  0  0  0  0
    2.6954   -0.2988    0.5673 C   0  0  0  0  0  0  0  0  0  0  0  0
    1.3089   -0.1098    0.1874 C   0  0  0  0  0  0  0  0  0  0  0  0
    0.4050   -1.1421    0.2268 N   0  0  0  0  0  0  0  0  0  0  0  0
   -0.7608   -0.6428   -0.1537 C   0  0  0  0  0  0  0  0  0  0  0  0
   -1.9634   -1.4575   -0.1250 C   0  0  0  0  0  0  0  0  0  0  0  0
   -1.9902   -2.6680   -0.3456 O   0  0  0  0  0  0  0  0  0  0  0  0
   -3.2781   -0.8561    0.1990 C   0  0  0  0  0  0  0  0  0  0  0  0
   -3.4908   -0.2084    1.4269 C   0  0  0  0  0  0  0  0  0  0  0  0
   -2.2701   -0.0526    2.6386 Cl  0  0  0  0  0  0  0  0  0  0  0  0
   -4.7495    0.3195    1.7300 C   0  0  0  0  0  0  0  0  0  0  0  0
   -5.8035    0.1895    0.8291 C   0  0  0  0  0  0  0  0  0  0  0  0
   -5.6055   -0.4714   -0.3815 C   0  0  0  0  0  0  0  0  0  0  0  0
   -4.3450   -1.0005   -0.7171 C   0  0  0  0  0  0  0  0  0  0  0  0
   -4.1650   -1.6961   -2.0475 C   0  0  0  0  0  0  0  0  0  0  0  0
   -4.2134   -3.0481   -1.9685 F   0  0  0  0  0  0  0  0  0  0  0  0
   -2.9963   -1.3606   -2.6592 F   0  0  0  0  0  0  0  0  0  0  0  0
   -5.1374   -1.3471   -2.9414 F   0  0  0  0  0  0  0  0  0  0  0  0
   -0.6162    0.6784   -0.5543 N   0  0  0  0  0  0  0  0  0  0  0  0
   -1.5272    1.5709   -1.1326 C   0  0  0  0  0  0  0  0  0  0  0  0
   -1.1370    2.8191   -1.4393 C   0  0  0  0  0  0  0  0  0  0  0  0
    0.2314    3.2155   -1.1680 C   0  0  0  0  0  0  0  0  0  0  0  0
    1.1196    2.3572   -0.6338 C   0  0  0  0  0  0  0  0  0  0  0  0
    0.7126    1.0299   -0.3091 C   0  0  0  0  0  0  0  0  0  0  0  0
    3.4036    0.6331    1.3324 C   0  0  0  0  0  0  0  0  0  0  0  0
    2.8165    1.7592    1.7656 F   0  0  0  0  0  0  0  0  0  0  0  0
    4.7339    0.4171    1.6918 C   0  0  0  0  0  0  0  0  0  0  0  0
    8.2615   -0.3685    2.5361 H   0  0  0  0  0  0  0  0  0  0  0  0
    5.1651   -2.6337    0.2338 H   0  0  0  0  0  0  0  0  0  0  0  0
    2.8090   -2.2374   -0.3869 H   0  0  0  0  0  0  0  0  0  0  0  0
   -4.9211    0.8211    2.6809 H   0  0  0  0  0  0  0  0  0  0  0  0
   -6.7838    0.5926    1.0769 H   0  0  0  0  0  0  0  0  0  0  0  0
   -6.4455   -0.5742   -1.0699 H   0  0  0  0  0  0  0  0  0  0  0  0
   -2.5294    1.2318   -1.3444 H   0  0  0  0  0  0  0  0  0  0  0  0
   -1.8087    3.5369   -1.8980 H   0  0  0  0  0  0  0  0  0  0  0  0
    0.5268    4.2297   -1.4206 H   0  0  0  0  0  0  0  0  0  0  0  0
    2.1426    2.6706   -0.4509 H   0  0  0  0  0  0  0  0  0  0  0  0
    5.2434    1.1682    2.2876 H   0  0  0  0  0  0  0  0  0  0  0  0
  1  2  2  0
  2  3  1  0
  2  4  1  0
  4  5  1  0
  5  6  2  0
  6  7  1  0
  7  8  1  0
  8  9  1  0
  9 10  2  0
 10 11  1  0
 11 12  2  0
 11 13  1  0
 13 14  2  0
 14 15  1  0
 14 16  1  0
 16 17  2  0
 17 18  1  0
 18 19  2  0
 19 20  1  0
 20 21  1  0
 20 22  1  0
 20 23  1  0
 10 24  1  0
 24 25  1  0
 25 26  2  0
 26 27  1  0
 27 28  2  0
 28 29  1  0
  7 30  2  0
 30 31  1  0
 30 32  1  0
 32  4  2  0
 29  8  2  0
 19 13  1  0
 29 24  1  0
  3 33  1  0
  5 34  1  0
  6 35  1  0
 16 36  1  0
 17 37  1  0
 18 38  1  0
 25 39  1  0
 26 40  1  0
 27 41  1  0
 28 42  1  0
 32 43  1  0
M  END
>  <QED>  (148) 
0.31

>  <MW>  (148) 
462.8

$$$$
CHEMBL3314026
     RDKit          3D

 71 74  0  0  0  0  0  0  0  0999 V2000
   -3.3669    3.1511   -3.3908 C   0  0  0  0  0  0  0  0  0  0  0  0
   -3.1332    2.0879   -2.3666 C   0  0  0  0  0  0  0  0  0  0  0  0
   -2.4877    0.9083   -2.6889 C   0  0  0  0  0  0  0  0  0  0  0  0
   -2.2837   -0.1018   -1.8171 N   0  0  0  0  0  0  0  0  0  0  0  0
   -2.7511    0.0278   -0.5442 C   0  0  0  0  0  0  0  0  0  0  0  0
   -2.4616   -1.1778    0.3512 C   0  0  0  0  0  0  0  0  0  0  0  0
   -3.7281   -1.8853    0.8857 C   0  0  0  0  0  0  0  0  0  0  0  0
   -4.6455   -2.3990   -0.2337 C   0  0  0  0  0  0  0  0  0  0  0  0
   -5.9340   -3.0649    0.2869 C   0  0  0  0  0  0  0  0  0  0  0  0
   -6.8573   -3.3946   -0.8890 C   0  0  0  0  0  0  0  0  0  0  0  0
   -5.6548   -4.3347    1.0924 C   0  0  0  0  0  0  0  0  0  0  0  0
   -1.5309   -0.8056    1.4193 N   0  0  0  0  0  0  0  0  0  0  0  0
   -0.7946   -1.7550    2.0979 C   0  0  0  0  0  0  0  0  0  0  0  0
   -0.9791   -2.9640    1.9911 O   0  0  0  0  0  0  0  0  0  0  0  0
    0.2415   -1.1862    3.0548 C   0  0  0  0  0  0  0  0  0  0  0  0
    1.1996   -0.2076    2.4101 C   0  0  0  0  0  0  0  0  0  0  0  0
    1.2486    1.1267    2.8467 C   0  0  0  0  0  0  0  0  0  0  0  0
    2.1134    2.0577    2.2595 C   0  0  0  0  0  0  0  0  0  0  0  0
    2.9211    1.5915    1.2266 C   0  0  0  0  0  0  0  0  0  0  0  0
    3.8205    2.3384    0.5293 O   0  0  0  0  0  0  0  0  0  0  0  0
    4.4074    1.5098   -0.3855 C   0  0  0  0  0  0  0  0  0  0  0  0
    5.4356    2.1275   -1.2727 C   0  0  0  0  0  0  0  0  0  0  0  0
    4.8647    2.1786   -2.5814 O   0  0  0  0  0  0  0  0  0  0  0  0
    6.7272    1.3866   -1.2458 C   0  0  0  0  0  0  0  0  0  0  0  0
    7.6842    1.3615   -0.1898 C   0  0  0  0  0  0  0  0  0  0  0  0
    7.6235    2.0458    1.1239 C   0  0  0  0  0  0  0  0  0  0  0  0
    8.7343    0.5912   -0.4939 N   0  0  0  0  0  0  0  0  0  0  0  0
    8.4837    0.0970   -1.7577 O   0  0  0  0  0  0  0  0  0  0  0  0
    7.2897    0.5669   -2.2034 C   0  0  0  0  0  0  0  0  0  0  0  0
    6.8763    0.1205   -3.5478 C   0  0  0  0  0  0  0  0  0  0  0  0
    3.8753    0.2386   -0.2804 C   0  0  0  0  0  0  0  0  0  0  0  0
    2.9158    0.2828    0.7633 C   0  0  0  0  0  0  0  0  0  0  0  0
    2.0424   -0.6400    1.3652 C   0  0  0  0  0  0  0  0  0  0  0  0
   -3.4087    1.1932   -0.1183 C   0  0  0  0  0  0  0  0  0  0  0  0
   -3.9650    1.3957    1.2608 C   0  0  0  0  0  0  0  0  0  0  0  0
   -3.6100    2.2138   -1.0633 C   0  0  0  0  0  0  0  0  0  0  0  0
   -2.5669    3.1571   -4.1387 H   0  0  0  0  0  0  0  0  0  0  0  0
   -4.3220    2.9813   -3.8973 H   0  0  0  0  0  0  0  0  0  0  0  0
   -3.3844    4.1428   -2.9268 H   0  0  0  0  0  0  0  0  0  0  0  0
   -2.1036    0.7274   -3.6894 H   0  0  0  0  0  0  0  0  0  0  0  0
   -1.9218   -1.9145   -0.2611 H   0  0  0  0  0  0  0  0  0  0  0  0
   -3.4220   -2.7344    1.5054 H   0  0  0  0  0  0  0  0  0  0  0  0
   -4.2949   -1.2288    1.5526 H   0  0  0  0  0  0  0  0  0  0  0  0
   -4.0901   -3.1070   -0.8619 H   0  0  0  0  0  0  0  0  0  0  0  0
   -4.9314   -1.5607   -0.8803 H   0  0  0  0  0  0  0  0  0  0  0  0
   -6.4596   -2.3539    0.9368 H   0  0  0  0  0  0  0  0  0  0  0  0
   -7.1064   -2.4902   -1.4543 H   0  0  0  0  0  0  0  0  0  0  0  0
   -7.7962   -3.8342   -0.5359 H   0  0  0  0  0  0  0  0  0  0  0  0
   -6.3870   -4.1059   -1.5765 H   0  0  0  0  0  0  0  0  0  0  0  0
   -6.5909   -4.8256    1.3800 H   0  0  0  0  0  0  0  0  0  0  0  0
   -5.0627   -5.0507    0.5125 H   0  0  0  0  0  0  0  0  0  0  0  0
   -5.1125   -4.1110    2.0158 H   0  0  0  0  0  0  0  0  0  0  0  0
   -1.0874    0.0989    1.3117 H   0  0  0  0  0  0  0  0  0  0  0  0
    0.8217   -2.0152    3.4779 H   0  0  0  0  0  0  0  0  0  0  0  0
   -0.2969   -0.7183    3.8877 H   0  0  0  0  0  0  0  0  0  0  0  0
    0.6061    1.4596    3.6609 H   0  0  0  0  0  0  0  0  0  0  0  0
    2.1582    3.0886    2.5891 H   0  0  0  0  0  0  0  0  0  0  0  0
    5.6200    3.1653   -0.9698 H   0  0  0  0  0  0  0  0  0  0  0  0
    4.0146    2.6415   -2.4845 H   0  0  0  0  0  0  0  0  0  0  0  0
    8.5921    2.0237    1.6342 H   0  0  0  0  0  0  0  0  0  0  0  0
    6.8872    1.5593    1.7715 H   0  0  0  0  0  0  0  0  0  0  0  0
    7.3355    3.0946    1.0004 H   0  0  0  0  0  0  0  0  0  0  0  0
    5.8732   -0.3158   -3.5171 H   0  0  0  0  0  0  0  0  0  0  0  0
    7.5592   -0.6382   -3.9431 H   0  0  0  0  0  0  0  0  0  0  0  0
    6.8683    0.9635   -4.2453 H   0  0  0  0  0  0  0  0  0  0  0  0
    4.1512   -0.6146   -0.8851 H   0  0  0  0  0  0  0  0  0  0  0  0
    2.0188   -1.6716    1.0205 H   0  0  0  0  0  0  0  0  0  0  0  0
   -4.9691    0.9661    1.3272 H   0  0  0  0  0  0  0  0  0  0  0  0
   -3.3286    0.9578    2.0327 H   0  0  0  0  0  0  0  0  0  0  0  0
   -4.0384    2.4632    1.4981 H   0  0  0  0  0  0  0  0  0  0  0  0
   -4.1456    3.1176   -0.7769 H   0  0  0  0  0  0  0  0  0  0  0  0
  1  2  1  0
  2  3  1  0
  3  4  2  0
  4  5  1  0
  5  6  1  0
  6  7  1  0
  7  8  1  0
  8  9  1  0
  9 10  1  0
  9 11  1  0
  6 12  1  0
 12 13  1  0
 13 14  2  0
 13 15  1  0
 15 16  1  0
 16 17  2  0
 17 18  1  0
 18 19  2  0
 19 20  1  0
 20 21  1  0
 21 22  1  0
 22 23  1  0
 22 24  1  0
 24 25  1  0
 25 26  1  0
 25 27  2  0
 27 28  1  0
 28 29  1  0
 29 30  1  0
 21 31  2  0
 31 32  1  0
 32 33  2  0
  5 34  2  0
 34 35  1  0
 34 36  1  0
 36  2  2  0
 33 16  1  0
 32 19  1  0
 29 24  2  0
  1 37  1  0
  1 38  1  0
  1 39  1  0
  3 40  1  0
  6 41  1  0
  7 42  1  0
  7 43  1  0
  8 44  1  0
  8 45  1  0
  9 46  1  0
 10 47  1  0
 10 48  1  0
 10 49  1  0
 11 50  1  0
 11 51  1  0
 11 52  1  0
 12 53  1  0
 15 54  1  0
 15 55  1  0
 17 56  1  0
 18 57  1  0
 22 58  1  0
 23 59  1  0
 26 60  1  0
 26 61  1  0
 26 62  1  0
 30 63  1  0
 30 64  1  0
 30 65  1  0
 31 66  1  0
 33 67  1  0
 35 68  1  0
 35 69  1  0
 35 70  1  0
 36 71  1  0
M  END
>  <QED>  (149) 
0.3

>  <MW>  (149) 
489.6

$$$$
CHEMBL3598067
     RDKit          3D

 75 79  0  0  0  0  0  0  0  0999 V2000
   -5.5006    2.3472   -0.8202 H   0  0  0  0  0  0  0  0  0  0  0  0
   -4.4140    2.4253   -0.9151 C   0  0  0  0  0  0  0  0  0  0  0  0
   -4.1782    2.9215   -1.8610 H   0  0  0  0  0  0  0  0  0  0  0  0
   -4.0496    3.0236   -0.0737 H   0  0  0  0  0  0  0  0  0  0  0  0
   -3.8130    1.0941   -0.8956 N   0  0  0  0  0  0  0  0  0  0  0  0
   -4.2959    0.0361   -1.6844 C   0  0  0  0  0  0  0  0  0  0  0  0
   -3.7375   -1.0368   -1.8995 O   0  0  0  0  0  0  0  0  0  0  0  0
   -5.5714    0.2289   -2.3859 C   0  0  0  0  0  0  0  0  0  0  0  0
   -6.7508   -0.1551   -1.7516 C   0  0  0  0  0  0  0  0  0  0  0  0
   -6.7359   -0.6386   -0.5018 F   0  0  0  0  0  0  0  0  0  0  0  0
   -7.9787   -0.0287   -2.3973 C   0  0  0  0  0  0  0  0  0  0  0  0
   -8.0294    0.4762   -3.6956 C   0  0  0  0  0  0  0  0  0  0  0  0
   -6.8490    0.8513   -4.3422 C   0  0  0  0  0  0  0  0  0  0  0  0
   -5.6163    0.7235   -3.6917 C   0  0  0  0  0  0  0  0  0  0  0  0
   -4.1979    1.2144   -4.5446 Cl  0  0  0  0  0  0  0  0  0  0  0  0
   -2.4914    0.9890   -0.3490 C   0  0  0  0  0  0  0  0  0  0  0  0
   -1.5292    1.9137   -0.8035 C   0  0  0  0  0  0  0  0  0  0  0  0
   -0.1923    1.8150   -0.4187 C   0  0  0  0  0  0  0  0  0  0  0  0
    0.2114    0.7915    0.4327 C   0  0  0  0  0  0  0  0  0  0  0  0
    1.6092    0.6811    0.8335 C   0  0  0  0  0  0  0  0  0  0  0  0
    2.7326    0.5037    0.0475 C   0  0  0  0  0  0  0  0  0  0  0  0
    3.8243    0.4548    0.9341 C   0  0  0  0  0  0  0  0  0  0  0  0
    5.1595    0.2765    0.6749 N   0  0  0  0  0  0  0  0  0  0  0  0
    5.7317    0.2100   -0.5673 C   0  0  0  0  0  0  0  0  0  0  0  0
    5.1574    0.3439   -1.6407 O   0  0  0  0  0  0  0  0  0  0  0  0
    7.0910   -0.0215   -0.4744 N   0  0  0  0  0  0  0  0  0  0  0  0
    7.8741   -0.2650   -1.6916 C   0  0  0  0  0  0  0  0  0  0  0  0
    9.3571    0.0439   -1.4391 C   0  0  0  0  0  0  0  0  0  0  0  0
   10.1066   -0.0349   -2.6486 O   0  0  0  0  0  0  0  0  0  0  0  0
    7.6746   -1.7157   -2.1657 C   0  0  0  0  0  0  0  0  0  0  0  0
    8.0317   -2.6246   -1.1164 O   0  0  0  0  0  0  0  0  0  0  0  0
    3.4319    0.6000    2.2002 N   0  0  0  0  0  0  0  0  0  0  0  0
    2.0917    0.7678    2.1212 N   0  0  0  0  0  0  0  0  0  0  0  0
    1.3428    1.0459    3.3463 C   0  0  0  0  0  0  0  0  0  0  0  0
    1.3257   -0.1714    4.2702 C   0  0  0  0  0  0  0  0  0  0  0  0
    1.8817    2.2825    4.0688 C   0  0  0  0  0  0  0  0  0  0  0  0
   -0.7436   -0.1255    0.8905 C   0  0  0  0  0  0  0  0  0  0  0  0
   -2.1119   -0.0366    0.5510 C   0  0  0  0  0  0  0  0  0  0  0  0
   -2.9698   -0.9113    1.1977 N   0  0  0  0  0  0  0  0  0  0  0  0
   -4.2847   -0.5427    1.7138 C   0  0  0  0  0  0  0  0  0  0  0  0
   -4.9223   -1.8536    2.0746 C   0  0  0  0  0  0  0  0  0  0  0  0
   -4.3015   -2.8026    3.0702 C   0  0  0  0  0  0  0  0  0  0  0  0
   -4.0404   -2.9545    1.5915 C   0  0  0  0  0  0  0  0  0  0  0  0
   -2.8336   -2.3485    0.9360 C   0  0  0  0  0  0  0  0  0  0  0  0
   -8.8874   -0.3315   -1.8845 H   0  0  0  0  0  0  0  0  0  0  0  0
   -8.9848    0.5716   -4.2072 H   0  0  0  0  0  0  0  0  0  0  0  0
   -6.8955    1.2375   -5.3586 H   0  0  0  0  0  0  0  0  0  0  0  0
   -1.7981    2.6893   -1.5152 H   0  0  0  0  0  0  0  0  0  0  0  0
    0.5301    2.5309   -0.8036 H   0  0  0  0  0  0  0  0  0  0  0  0
    2.7476    0.4047   -1.0292 H   0  0  0  0  0  0  0  0  0  0  0  0
    5.7423    0.3182    1.4939 H   0  0  0  0  0  0  0  0  0  0  0  0
    7.3381   -0.6445    0.2839 H   0  0  0  0  0  0  0  0  0  0  0  0
    7.5107    0.3998   -2.4853 H   0  0  0  0  0  0  0  0  0  0  0  0
    9.7922   -0.6487   -0.7103 H   0  0  0  0  0  0  0  0  0  0  0  0
    9.4659    1.0595   -1.0423 H   0  0  0  0  0  0  0  0  0  0  0  0
   11.0274    0.1836   -2.4228 H   0  0  0  0  0  0  0  0  0  0  0  0
    6.6260   -1.9001   -2.4212 H   0  0  0  0  0  0  0  0  0  0  0  0
    8.2894   -1.9370   -3.0437 H   0  0  0  0  0  0  0  0  0  0  0  0
    7.8607   -3.5178   -1.4646 H   0  0  0  0  0  0  0  0  0  0  0  0
    0.3113    1.2690    3.0563 H   0  0  0  0  0  0  0  0  0  0  0  0
    0.6971    0.0173    5.1468 H   0  0  0  0  0  0  0  0  0  0  0  0
    0.9280   -1.0513    3.7532 H   0  0  0  0  0  0  0  0  0  0  0  0
    2.3315   -0.4225    4.6247 H   0  0  0  0  0  0  0  0  0  0  0  0
    2.9023    2.1266    4.4353 H   0  0  0  0  0  0  0  0  0  0  0  0
    1.8965    3.1495    3.3992 H   0  0  0  0  0  0  0  0  0  0  0  0
    1.2515    2.5312    4.9293 H   0  0  0  0  0  0  0  0  0  0  0  0
   -0.4280   -0.9168    1.5672 H   0  0  0  0  0  0  0  0  0  0  0  0
   -4.1852    0.0938    2.5992 H   0  0  0  0  0  0  0  0  0  0  0  0
   -4.9141   -0.0312    0.9877 H   0  0  0  0  0  0  0  0  0  0  0  0
   -5.9840   -1.8973    1.8848 H   0  0  0  0  0  0  0  0  0  0  0  0
   -3.4984   -2.4360    3.6993 H   0  0  0  0  0  0  0  0  0  0  0  0
   -4.9470   -3.5306    3.5465 H   0  0  0  0  0  0  0  0  0  0  0  0
   -4.4662   -3.7873    1.0533 H   0  0  0  0  0  0  0  0  0  0  0  0
   -2.8362   -2.5675   -0.1357 H   0  0  0  0  0  0  0  0  0  0  0  0
   -1.9199   -2.7557    1.3814 H   0  0  0  0  0  0  0  0  0  0  0  0
  1  2  1  0
  2  3  1  0
  2  4  1  0
  2  5  1  0
  5  6  1  0
  6  7  2  0
  6  8  1  0
  8  9  2  0
  9 10  1  0
  9 11  1  0
 11 12  2  0
 12 13  1  0
 13 14  2  0
 14 15  1  0
  5 16  1  0
 16 17  1  0
 17 18  2  0
 18 19  1  0
 19 20  1  0
 20 21  2  0
 21 22  1  0
 22 23  1  0
 23 24  1  0
 24 25  2  0
 24 26  1  0
 26 27  1  0
 27 28  1  0
 28 29  1  0
 27 30  1  0
 30 31  1  0
 22 32  2  0
 32 33  1  0
 33 34  1  0
 34 35  1  0
 34 36  1  0
 19 37  2  0
 37 38  1  0
 38 39  1  0
 39 40  1  0
 40 41  1  0
 41 42  1  0
 42 43  1  0
 43 44  1  0
 14  8  1  0
 38 16  2  0
 44 39  1  0
 33 20  1  0
 43 41  1  0
 11 45  1  0
 12 46  1  0
 13 47  1  0
 17 48  1  0
 18 49  1  0
 21 50  1  0
 23 51  1  0
 26 52  1  0
 27 53  1  0
 28 54  1  0
 28 55  1  0
 29 56  1  0
 30 57  1  0
 30 58  1  0
 31 59  1  0
 34 60  1  0
 35 61  1  0
 35 62  1  0
 35 63  1  0
 36 64  1  0
 36 65  1  0
 36 66  1  0
 37 67  1  0
 40 68  1  0
 40 69  1  0
 41 70  1  0
 42 71  1  0
 42 72  1  0
 43 73  1  0
 44 74  1  0
 44 75  1  0
M  ISO  3   1   2   3   2   4   2
M  END
>  <QED>  (150) 
0.299

>  <MW>  (150) 
588.1

$$$$
CHEMBL3314024
     RDKit          3D

 67 71  0  0  0  0  0  0  0  0999 V2000
   -7.3978   -0.5749    1.6286 C   0  0  0  0  0  0  0  0  0  0  0  0
   -6.0793    0.0481    1.2788 C   0  0  0  0  0  0  0  0  0  0  0  0
   -4.8889   -0.6481    1.4837 C   0  0  0  0  0  0  0  0  0  0  0  0
   -3.6609   -0.0502    1.1915 C   0  0  0  0  0  0  0  0  0  0  0  0
   -3.5835    1.2704    0.7069 C   0  0  0  0  0  0  0  0  0  0  0  0
   -2.2300    1.8973    0.3628 C   0  0  0  0  0  0  0  0  0  0  0  0
   -1.9232    1.6072   -1.0279 N   0  0  0  0  0  0  0  0  0  0  0  0
   -1.2762    2.5111   -1.8391 C   0  0  0  0  0  0  0  0  0  0  0  0
   -1.0799    3.6839   -1.5346 O   0  0  0  0  0  0  0  0  0  0  0  0
   -0.8308    1.9401   -3.1772 C   0  0  0  0  0  0  0  0  0  0  0  0
    0.1614    0.8078   -3.0166 C   0  0  0  0  0  0  0  0  0  0  0  0
   -0.1349   -0.4747   -3.5060 C   0  0  0  0  0  0  0  0  0  0  0  0
    0.7335   -1.5538   -3.3003 C   0  0  0  0  0  0  0  0  0  0  0  0
    1.8952   -1.2895   -2.5806 C   0  0  0  0  0  0  0  0  0  0  0  0
    2.8379   -2.2090   -2.2340 O   0  0  0  0  0  0  0  0  0  0  0  0
    3.7885   -1.5516   -1.5047 C   0  0  0  0  0  0  0  0  0  0  0  0
    4.8992   -2.3812   -0.9545 C   0  0  0  0  0  0  0  0  0  0  0  0
    6.1145   -1.8344   -1.4678 O   0  0  0  0  0  0  0  0  0  0  0  0
    4.8721   -2.4098    0.5352 C   0  0  0  0  0  0  0  0  0  0  0  0
    3.9391   -3.0961    1.3665 C   0  0  0  0  0  0  0  0  0  0  0  0
    2.7861   -3.9351    0.9611 C   0  0  0  0  0  0  0  0  0  0  0  0
    4.1894   -2.8893    2.6639 N   0  0  0  0  0  0  0  0  0  0  0  0
    5.2983   -2.0691    2.7061 O   0  0  0  0  0  0  0  0  0  0  0  0
    5.7018   -1.7808    1.4414 C   0  0  0  0  0  0  0  0  0  0  0  0
    6.8776   -0.8976    1.3195 C   0  0  0  0  0  0  0  0  0  0  0  0
    3.4756   -0.2087   -1.4193 C   0  0  0  0  0  0  0  0  0  0  0  0
    2.2438   -0.0355   -2.0981 C   0  0  0  0  0  0  0  0  0  0  0  0
    1.3733    1.0413   -2.3336 C   0  0  0  0  0  0  0  0  0  0  0  0
   -1.0877    1.5020    1.3048 C   0  0  0  0  0  0  0  0  0  0  0  0
   -0.9673    2.1580    2.5429 C   0  0  0  0  0  0  0  0  0  0  0  0
    0.0506    1.8209    3.4380 C   0  0  0  0  0  0  0  0  0  0  0  0
    0.9632    0.8203    3.1134 C   0  0  0  0  0  0  0  0  0  0  0  0
    0.8569    0.1527    1.8965 C   0  0  0  0  0  0  0  0  0  0  0  0
   -0.1625    0.4865    1.0014 C   0  0  0  0  0  0  0  0  0  0  0  0
   -4.7922    1.9748    0.4908 C   0  0  0  0  0  0  0  0  0  0  0  0
   -4.8102    3.3831   -0.0444 C   0  0  0  0  0  0  0  0  0  0  0  0
   -6.0208    1.3591    0.7944 C   0  0  0  0  0  0  0  0  0  0  0  0
   -7.3549   -1.6648    1.5304 H   0  0  0  0  0  0  0  0  0  0  0  0
   -8.1869   -0.2200    0.9574 H   0  0  0  0  0  0  0  0  0  0  0  0
   -7.6686   -0.3240    2.6587 H   0  0  0  0  0  0  0  0  0  0  0  0
   -4.9048   -1.6625    1.8759 H   0  0  0  0  0  0  0  0  0  0  0  0
   -2.7590   -0.6338    1.3626 H   0  0  0  0  0  0  0  0  0  0  0  0
   -2.3101    2.9868    0.4585 H   0  0  0  0  0  0  0  0  0  0  0  0
   -1.9814    0.6407   -1.3137 H   0  0  0  0  0  0  0  0  0  0  0  0
   -1.7239    1.6118   -3.7218 H   0  0  0  0  0  0  0  0  0  0  0  0
   -0.3693    2.7387   -3.7698 H   0  0  0  0  0  0  0  0  0  0  0  0
   -1.0627   -0.6527   -4.0482 H   0  0  0  0  0  0  0  0  0  0  0  0
    0.5081   -2.5496   -3.6622 H   0  0  0  0  0  0  0  0  0  0  0  0
    4.8300   -3.4086   -1.3315 H   0  0  0  0  0  0  0  0  0  0  0  0
    6.0272   -1.8473   -2.4364 H   0  0  0  0  0  0  0  0  0  0  0  0
    2.4270   -4.5519    1.7915 H   0  0  0  0  0  0  0  0  0  0  0  0
    1.9583   -3.3035    0.6236 H   0  0  0  0  0  0  0  0  0  0  0  0
    3.0638   -4.6072    0.1431 H   0  0  0  0  0  0  0  0  0  0  0  0
    7.7209   -1.4411    0.8829 H   0  0  0  0  0  0  0  0  0  0  0  0
    6.6489   -0.0384    0.6813 H   0  0  0  0  0  0  0  0  0  0  0  0
    7.1917   -0.5151    2.2958 H   0  0  0  0  0  0  0  0  0  0  0  0
    4.0505    0.5432   -0.8959 H   0  0  0  0  0  0  0  0  0  0  0  0
    1.6148    2.0300   -1.9482 H   0  0  0  0  0  0  0  0  0  0  0  0
   -1.6719    2.9412    2.8172 H   0  0  0  0  0  0  0  0  0  0  0  0
    0.1306    2.3403    4.3894 H   0  0  0  0  0  0  0  0  0  0  0  0
    1.7564    0.5569    3.8088 H   0  0  0  0  0  0  0  0  0  0  0  0
    1.5690   -0.6300    1.6461 H   0  0  0  0  0  0  0  0  0  0  0  0
   -0.2234   -0.0631    0.0667 H   0  0  0  0  0  0  0  0  0  0  0  0
   -4.3642    4.0699    0.6817 H   0  0  0  0  0  0  0  0  0  0  0  0
   -4.2671    3.4421   -0.9925 H   0  0  0  0  0  0  0  0  0  0  0  0
   -5.8321    3.7263   -0.2390 H   0  0  0  0  0  0  0  0  0  0  0  0
   -6.9485    1.9103    0.6477 H   0  0  0  0  0  0  0  0  0  0  0  0
  1  2  1  0
  2  3  1  0
  3  4  2  0
  4  5  1  0
  5  6  1  0
  6  7  1  0
  7  8  1  0
  8  9  2  0
  8 10  1  0
 10 11  1  0
 11 12  2  0
 12 13  1  0
 13 14  2  0
 14 15  1  0
 15 16  1  0
 16 17  1  0
 17 18  1  0
 17 19  1  0
 19 20  1  0
 20 21  1  0
 20 22  2  0
 22 23  1  0
 23 24  1  0
 24 25  1  0
 16 26  2  0
 26 27  1  0
 27 28  2  0
  6 29  1  0
 29 30  2  0
 30 31  1  0
 31 32  2  0
 32 33  1  0
 33 34  2  0
  5 35  2  0
 35 36  1  0
 35 37  1  0
 37  2  2  0
 28 11  1  0
 34 29  1  0
 27 14  1  0
 24 19  2  0
  1 38  1  0
  1 39  1  0
  1 40  1  0
  3 41  1  0
  4 42  1  0
  6 43  1  0
  7 44  1  0
 10 45  1  0
 10 46  1  0
 12 47  1  0
 13 48  1  0
 17 49  1  0
 18 50  1  0
 21 51  1  0
 21 52  1  0
 21 53  1  0
 25 54  1  0
 25 55  1  0
 25 56  1  0
 26 57  1  0
 28 58  1  0
 30 59  1  0
 31 60  1  0
 32 61  1  0
 33 62  1  0
 34 63  1  0
 36 64  1  0
 36 65  1  0
 36 66  1  0
 37 67  1  0
M  END
>  <QED>  (151) 
0.282

>  <MW>  (151) 
494.6

$$$$
